<?xml version="1.0" encoding="UTF-8"?>

<!-- generated on 2025-04-18 22:18:02 by Eclipse SUMO netedit Version 1.21.0
<neteditConfiguration xmlns:xsi="http://www.w3.org/2001/XMLSchema-instance" xsi:noNamespaceSchemaLocation="http://sumo.dlr.de/xsd/neteditConfiguration.xsd">

    <input>
        <sumocfg-file value="C:\Users\Zachary\Downloads\working SUMO files for intersection\smallerz.sumocfg"/>
        <additional-files value="C:\Users\Zachary\Downloads\working SUMO files for intersection\smallers.add.xml"/>
        <route-files value="C:\Users\Zachary\Downloads\working SUMO files for intersection\smallers.rou.xml"/>
        <data-files value="C:\Users\Zachary\Downloads\working SUMO files for intersection\smallers.dat.xml"/>
        <sumo-net-file value="C:\Users\Zachary\Downloads\working SUMO files for intersection\smaller.net.xml"/>
    </input>

    <output>
        <output-file value="C:\Users\Zachary\Downloads\working SUMO files for intersection\smaller.net.xml"/>
    </output>

    <processing>
        <geometry.min-radius.fix.railways value="false"/>
        <geometry.max-grade.fix value="false"/>
        <offset.disable-normalization value="true"/>
        <lefthand value="0"/>
    </processing>

    <junctions>
        <no-turnarounds value="true"/>
        <junctions.corner-detail value="5"/>
        <junctions.limit-turn-speed value="5.50"/>
        <rectangular-lane-cut value="0"/>
    </junctions>

    <pedestrian>
        <walkingareas value="0"/>
    </pedestrian>

</neteditConfiguration>
-->

<net version="1.20" junctionCornerDetail="5" limitTurnSpeed="5.50" xmlns:xsi="http://www.w3.org/2001/XMLSchema-instance" xsi:noNamespaceSchemaLocation="http://sumo.dlr.de/xsd/net_file.xsd">

    <location netOffset="-290458.46,-1619826.08" convBoundary="1173.75,47.64,1837.07,1128.94" origBoundary="121.054334,14.643858,121.074303,14.659428" projParameter="+proj=utm +zone=51 +ellps=WGS84 +datum=WGS84 +units=m +no_defs"/>

    <type id="highway.footway" priority="1" numLanes="1" speed="2.78" allow="pedestrian" oneway="1" width="2.00"/>
    <type id="highway.path" priority="1" numLanes="1" speed="5.56" allow="pedestrian bicycle" oneway="0" width="2.00"/>
    <type id="highway.pedestrian" priority="1" numLanes="1" speed="2.78" allow="pedestrian" oneway="1" width="2.00"/>
    <type id="highway.secondary" priority="11" numLanes="1" speed="27.78" disallow="tram rail_urban rail rail_electric rail_fast ship container cable_car subway aircraft wheelchair scooter drone" oneway="0"/>
    <type id="highway.service" priority="1" numLanes="1" speed="5.56" allow="pedestrian delivery bicycle" oneway="0"/>
    <type id="highway.steps" priority="1" numLanes="1" speed="1.39" allow="pedestrian" oneway="1" width="2.00"/>
    <type id="highway.tertiary" priority="10" numLanes="1" speed="22.22" disallow="tram rail_urban rail rail_electric rail_fast ship container cable_car subway aircraft wheelchair scooter drone" oneway="0"/>
    <type id="highway.unclassified" priority="4" numLanes="1" speed="13.89" disallow="tram rail_urban rail rail_electric rail_fast ship container cable_car subway aircraft wheelchair scooter drone" oneway="0"/>

    <edge id=":11433426518_0" function="internal">
        <lane id=":11433426518_0_0" index="0" allow="pedestrian delivery bicycle" speed="5.56" length="5.00" shape="1564.16,651.36 1559.16,651.28"/>
    </edge>
    <edge id=":11433426518_1" function="internal">
        <lane id=":11433426518_1_0" index="0" allow="pedestrian delivery bicycle" speed="3.65" length="1.44" shape="1564.16,651.36 1562.97,650.54"/>
    </edge>
    <edge id=":11433426518_4" function="internal">
        <lane id=":11433426518_4_0" index="0" allow="pedestrian delivery bicycle" speed="3.65" length="3.23" shape="1562.97,650.54 1562.58,649.73 1563.00,648.94 1564.21,648.16"/>
    </edge>
    <edge id=":11433426518_2" function="internal">
        <lane id=":11433426518_2_0" index="0" allow="pedestrian delivery bicycle" speed="5.56" length="5.00" shape="1559.21,648.08 1564.21,648.16"/>
    </edge>
    <edge id=":11433426518_3" function="internal">
        <lane id=":11433426518_3_0" index="0" allow="pedestrian delivery bicycle" speed="3.65" length="1.44" shape="1559.21,648.08 1560.39,648.90"/>
    </edge>
    <edge id=":11433426518_5" function="internal">
        <lane id=":11433426518_5_0" index="0" allow="pedestrian delivery bicycle" speed="3.65" length="3.23" shape="1560.39,648.90 1560.78,649.71 1560.37,650.50 1559.16,651.28"/>
    </edge>
    <edge id=":11433635232_0" function="internal">
        <lane id=":11433635232_0_0" index="0" allow="pedestrian delivery bicycle" speed="3.68" length="4.80" shape="1751.67,890.81 1752.15,889.40 1752.83,888.79 1753.73,888.97 1754.85,889.95"/>
    </edge>
    <edge id=":11433635234_0" function="internal">
        <lane id=":11433635234_0_0" index="0" allow="pedestrian delivery bicycle" speed="5.16" length="5.18" shape="1759.45,924.43 1759.21,923.09 1758.57,922.13 1757.52,921.56 1756.06,921.37"/>
    </edge>
    <edge id=":11433635234_1" function="internal">
        <lane id=":11433635234_1_0" index="0" allow="pedestrian delivery bicycle" speed="5.56" length="6.30" shape="1759.45,924.43 1759.25,918.13"/>
    </edge>
    <edge id=":11433635234_2" function="internal">
        <lane id=":11433635234_2_0" index="0" allow="pedestrian delivery bicycle" speed="4.27" length="3.43" shape="1756.07,918.17 1756.99,918.30 1758.06,918.52 1758.92,918.56 1759.25,918.13"/>
    </edge>
    <edge id=":11433635234_3" function="internal">
        <lane id=":11433635234_3_0" index="0" allow="pedestrian delivery bicycle" speed="3.65" length="4.67" shape="1756.07,918.17 1757.27,918.97 1757.67,919.77 1757.26,920.57 1756.06,921.37"/>
    </edge>
    <edge id=":11433635235_0" function="internal">
        <lane id=":11433635235_0_0" index="0" allow="pedestrian delivery bicycle" speed="3.65" length="4.67" shape="1735.53,921.34 1734.33,920.54 1733.93,919.74 1734.33,918.94 1735.53,918.14"/>
    </edge>
    <edge id=":11490258480_0" function="internal">
        <lane id=":11490258480_0_0" index="0" allow="pedestrian delivery bicycle" speed="5.56" length="4.89" shape="1775.82,505.29 1773.26,509.46"/>
    </edge>
    <edge id=":11490258480_1" function="internal">
        <lane id=":11490258480_1_0" index="0" allow="pedestrian delivery bicycle" speed="3.65" length="1.44" shape="1775.82,505.29 1774.50,505.88"/>
    </edge>
    <edge id=":11490258480_4" function="internal">
        <lane id=":11490258480_4_0" index="0" allow="pedestrian delivery bicycle" speed="3.65" length="3.23" shape="1774.50,505.88 1773.61,505.79 1773.15,505.02 1773.11,503.58"/>
    </edge>
    <edge id=":11490258480_2" function="internal">
        <lane id=":11490258480_2_0" index="0" allow="pedestrian delivery bicycle" speed="5.56" length="4.97" shape="1770.52,507.81 1773.11,503.58"/>
    </edge>
    <edge id=":11490258480_3" function="internal">
        <lane id=":11490258480_3_0" index="0" allow="pedestrian delivery bicycle" speed="3.65" length="1.44" shape="1770.52,507.81 1771.82,507.19"/>
    </edge>
    <edge id=":11490258480_5" function="internal">
        <lane id=":11490258480_5_0" index="0" allow="pedestrian delivery bicycle" speed="3.65" length="3.23" shape="1771.82,507.19 1772.71,507.26 1773.19,508.02 1773.26,509.46"/>
    </edge>
    <edge id=":11490258483_0" function="internal">
        <lane id=":11490258483_0_0" index="0" allow="pedestrian delivery bicycle" speed="5.05" length="5.01" shape="1780.99,502.92 1779.74,502.36 1778.61,502.34 1777.60,502.85 1776.71,503.89"/>
    </edge>
    <edge id=":11490258483_1" function="internal">
        <lane id=":11490258483_1_0" index="0" allow="pedestrian delivery bicycle" speed="5.56" length="7.78" shape="1780.99,502.92 1778.77,501.30 1777.41,499.76 1776.91,498.30 1777.27,496.92"/>
    </edge>
    <edge id=":11490258483_2" function="internal">
        <lane id=":11490258483_2_0" index="0" allow="pedestrian delivery bicycle" speed="5.56" length="6.30" shape="1780.03,498.54 1776.71,503.89"/>
    </edge>
    <edge id=":11490258483_3" function="internal">
        <lane id=":11490258483_3_0" index="0" allow="pedestrian delivery bicycle" speed="3.65" length="4.67" shape="1780.03,498.54 1778.73,499.17 1777.84,499.11 1777.35,498.36 1777.27,496.92"/>
    </edge>
    <edge id=":11490258483_4" function="internal">
        <lane id=":11490258483_4_0" index="0" allow="pedestrian delivery bicycle" speed="5.56" length="6.19" shape="1774.00,502.17 1777.27,496.92"/>
    </edge>
    <edge id=":11490258483_5" function="internal">
        <lane id=":11490258483_5_0" index="0" allow="pedestrian delivery bicycle" speed="3.65" length="4.67" shape="1774.00,502.17 1775.32,501.59 1776.21,501.68 1776.67,502.44 1776.71,503.89"/>
    </edge>
    <edge id=":11533973827_0" function="internal">
        <lane id=":11533973827_0_0" index="0" allow="pedestrian delivery bicycle" speed="5.56" length="5.00" shape="1335.51,521.50 1333.39,516.96"/>
    </edge>
    <edge id=":11533973827_1" function="internal">
        <lane id=":11533973827_1_0" index="0" allow="pedestrian delivery bicycle" speed="3.65" length="4.67" shape="1335.51,521.50 1335.72,520.07 1336.28,519.37 1337.17,519.39 1338.41,520.14"/>
    </edge>
    <edge id=":11533973827_2" function="internal">
        <lane id=":11533973827_2_0" index="0" allow="pedestrian delivery bicycle" speed="5.56" length="5.00" shape="1336.29,515.61 1338.41,520.14"/>
    </edge>
    <edge id=":11533973827_3" function="internal">
        <lane id=":11533973827_3_0" index="0" allow="pedestrian delivery bicycle" speed="3.65" length="4.67" shape="1336.29,515.61 1336.07,517.03 1335.51,517.74 1334.62,517.71 1333.39,516.96"/>
    </edge>
    <edge id=":11534028853_0" function="internal">
        <lane id=":11534028853_0_0" index="0" allow="pedestrian delivery bicycle" speed="5.56" length="5.00" shape="1392.09,558.35 1387.61,560.57"/>
    </edge>
    <edge id=":11534028853_1" function="internal">
        <lane id=":11534028853_1_0" index="0" allow="pedestrian delivery bicycle" speed="3.65" length="1.44" shape="1392.09,558.35 1390.66,558.16"/>
    </edge>
    <edge id=":11534028853_4" function="internal">
        <lane id=":11534028853_4_0" index="0" allow="pedestrian delivery bicycle" speed="3.65" length="3.23" shape="1390.66,558.16 1389.95,557.63 1389.95,556.73 1390.67,555.48"/>
    </edge>
    <edge id=":11534028853_2" function="internal">
        <lane id=":11534028853_2_0" index="0" allow="pedestrian delivery bicycle" speed="5.56" length="5.00" shape="1386.19,557.70 1390.67,555.48"/>
    </edge>
    <edge id=":11534028853_3" function="internal">
        <lane id=":11534028853_3_0" index="0" allow="pedestrian delivery bicycle" speed="3.65" length="1.44" shape="1386.19,557.70 1387.62,557.88"/>
    </edge>
    <edge id=":11534028853_5" function="internal">
        <lane id=":11534028853_5_0" index="0" allow="pedestrian delivery bicycle" speed="3.65" length="3.23" shape="1387.62,557.88 1388.33,558.42 1388.33,559.32 1387.61,560.57"/>
    </edge>
    <edge id=":12073100636_0" function="internal">
        <lane id=":12073100636_0_0" index="0" disallow="tram rail_urban rail rail_electric rail_fast ship container cable_car subway aircraft wheelchair scooter drone" speed="4.17" length="5.00" shape="1728.44,1103.72 1733.44,1103.74"/>
        <lane id=":12073100636_0_1" index="1" disallow="tram rail_urban rail rail_electric rail_fast ship container cable_car subway aircraft wheelchair scooter drone" speed="4.17" length="5.00" shape="1728.42,1106.92 1733.42,1106.94"/>
    </edge>
    <edge id=":12073243203_0" function="internal">
        <lane id=":12073243203_0_0" index="0" allow="pedestrian delivery bicycle" speed="5.56" length="5.01" shape="1757.27,718.09 1752.27,718.37"/>
    </edge>
    <edge id=":12073243203_1" function="internal">
        <lane id=":12073243203_1_0" index="0" allow="pedestrian delivery bicycle" speed="3.65" length="4.67" shape="1757.27,718.09 1756.03,717.36 1755.59,716.58 1755.94,715.76 1757.10,714.90"/>
    </edge>
    <edge id=":12073243203_2" function="internal">
        <lane id=":12073243203_2_0" index="0" allow="pedestrian delivery bicycle" speed="5.56" length="5.01" shape="1752.10,715.18 1757.10,714.90"/>
    </edge>
    <edge id=":12073243203_3" function="internal">
        <lane id=":12073243203_3_0" index="0" allow="pedestrian delivery bicycle" speed="3.65" length="4.67" shape="1752.10,715.18 1753.34,715.91 1753.78,716.68 1753.43,717.50 1752.27,718.37"/>
    </edge>
    <edge id=":12073918493_0" function="internal">
        <lane id=":12073918493_0_0" index="0" allow="pedestrian bicycle" speed="2.89" length="2.92" width="2.00" shape="1719.37,797.17 1720.27,797.13 1720.77,797.38 1720.87,797.93 1720.56,798.78"/>
    </edge>
    <edge id=":12111476892_0" function="internal">
        <lane id=":12111476892_0_0" index="0" speed="8.33" length="5.01" shape="1459.62,938.20 1454.84,936.68"/>
    </edge>
    <edge id=":12111476892_1" function="internal">
        <lane id=":12111476892_1_0" index="0" speed="3.65" length="4.67" shape="1459.62,938.20 1458.72,937.08 1458.58,936.19 1459.20,935.55 1460.59,935.15"/>
    </edge>
    <edge id=":12111476892_2" function="internal">
        <lane id=":12111476892_2_0" index="0" speed="8.33" length="5.01" shape="1455.82,933.63 1460.59,935.15"/>
    </edge>
    <edge id=":12111476892_3" function="internal">
        <lane id=":12111476892_3_0" index="0" speed="3.65" length="4.67" shape="1455.82,933.63 1456.72,934.76 1456.85,935.64 1456.23,936.28 1454.84,936.68"/>
    </edge>
    <edge id=":12321065042_0" function="internal">
        <lane id=":12321065042_0_0" index="0" allow="pedestrian bicycle" speed="5.56" length="5.00" width="2.00" shape="1687.49,924.94 1682.48,924.90"/>
    </edge>
    <edge id=":12321065042_1" function="internal">
        <lane id=":12321065042_1_0" index="0" allow="pedestrian bicycle" speed="2.89" length="2.39" width="2.00" shape="1687.49,924.94 1686.74,924.43 1686.49,923.93 1686.75,923.43 1687.05,923.23"/>
    </edge>
    <edge id=":12321065042_4" function="internal">
        <lane id=":12321065042_4_0" index="0" allow="pedestrian bicycle" speed="2.89" length="0.53" width="2.00" shape="1687.05,923.23 1687.50,922.94"/>
    </edge>
    <edge id=":12321065042_2" function="internal">
        <lane id=":12321065042_2_0" index="0" allow="pedestrian bicycle" speed="5.56" length="5.00" width="2.00" shape="1682.50,922.90 1687.50,922.94"/>
    </edge>
    <edge id=":12321065042_3" function="internal">
        <lane id=":12321065042_3_0" index="0" allow="pedestrian bicycle" speed="2.89" length="2.39" width="2.00" shape="1682.50,922.90 1683.24,923.41 1683.49,923.91 1683.24,924.41 1682.93,924.61"/>
    </edge>
    <edge id=":12321065042_5" function="internal">
        <lane id=":12321065042_5_0" index="0" allow="pedestrian bicycle" speed="2.89" length="0.53" width="2.00" shape="1682.93,924.61 1682.48,924.90"/>
    </edge>
    <edge id=":12321065045_0" function="internal">
        <lane id=":12321065045_0_0" index="0" allow="pedestrian bicycle" speed="2.89" length="2.92" width="2.00" shape="1614.15,806.73 1614.90,807.23 1615.15,807.73 1614.90,808.23 1614.15,808.73"/>
    </edge>
    <edge id=":12321065046_0" function="internal">
        <lane id=":12321065046_0_0" index="0" allow="pedestrian bicycle" speed="2.89" length="2.92" width="2.00" shape="1632.11,815.94 1631.38,815.40 1631.16,814.89 1631.44,814.40 1632.21,813.94"/>
    </edge>
    <edge id=":12321065047_0" function="internal">
        <lane id=":12321065047_0_0" index="0" allow="pedestrian bicycle" speed="2.89" length="2.92" width="2.00" shape="1648.46,814.83 1649.18,815.37 1649.41,815.88 1649.13,816.37 1648.35,816.83"/>
    </edge>
    <edge id=":1235577932_0" function="internal">
        <lane id=":1235577932_0_0" index="0" allow="pedestrian delivery bicycle" speed="5.56" length="4.80" shape="1757.60,696.05 1752.70,695.85"/>
        <lane id=":1235577932_0_1" index="1" allow="pedestrian delivery bicycle" speed="5.56" length="4.80" shape="1757.63,692.85 1752.94,692.66"/>
    </edge>
    <edge id=":1235577992_0" function="internal">
        <lane id=":1235577992_0_0" index="0" allow="pedestrian delivery bicycle" speed="3.65" length="4.67" shape="1566.44,637.69 1567.26,638.88 1567.34,639.77 1566.67,640.37 1565.26,640.67"/>
    </edge>
    <edge id=":1319775908_0" function="internal">
        <lane id=":1319775908_0_0" index="0" allow="pedestrian delivery bicycle" speed="5.06" length="4.98" shape="1372.66,571.15 1372.00,569.96 1371.11,569.26 1370.00,569.05 1368.67,569.33"/>
    </edge>
    <edge id=":1319775908_1" function="internal">
        <lane id=":1319775908_1_0" index="0" allow="pedestrian delivery bicycle" speed="5.56" length="9.90" shape="1372.66,571.15 1372.03,568.49 1372.34,566.23 1373.57,564.34 1375.74,562.85"/>
    </edge>
    <edge id=":1319775908_2" function="internal">
        <lane id=":1319775908_2_0" index="0" allow="pedestrian delivery bicycle" speed="3.65" length="4.67" shape="1372.66,571.15 1372.98,569.74 1373.58,569.08 1374.47,569.17 1375.65,570.01"/>
    </edge>
    <edge id=":1319775908_3" function="internal">
        <lane id=":1319775908_3_0" index="0" allow="pedestrian delivery bicycle" speed="5.23" length="5.08" shape="1377.16,565.72 1376.07,566.48 1375.45,567.45 1375.31,568.62 1375.65,570.01"/>
    </edge>
    <edge id=":1319775908_4" function="internal">
        <lane id=":1319775908_4_0" index="0" allow="pedestrian delivery bicycle" speed="5.56" length="9.23" shape="1377.16,565.72 1374.70,566.92 1372.99,567.70 1371.24,568.39 1368.67,569.33"/>
    </edge>
    <edge id=":1319775908_5" function="internal">
        <lane id=":1319775908_5_0" index="0" allow="pedestrian delivery bicycle" speed="3.65" length="4.67" shape="1377.16,565.72 1375.73,565.53 1375.02,564.99 1375.02,564.10 1375.74,562.85"/>
    </edge>
    <edge id=":1319775908_6" function="internal">
        <lane id=":1319775908_6_0" index="0" allow="pedestrian delivery bicycle" speed="5.56" length="8.88" shape="1367.58,566.32 1370.05,565.42 1371.73,564.75 1373.37,564.01 1375.74,562.85"/>
    </edge>
    <edge id=":1319775908_7" function="internal">
        <lane id=":1319775908_7_0" index="0" allow="pedestrian delivery bicycle" speed="5.56" length="10.08" shape="1367.58,566.32 1370.27,565.76 1372.52,566.18 1374.31,567.60 1375.65,570.01"/>
    </edge>
    <edge id=":1319775908_8" function="internal">
        <lane id=":1319775908_8_0" index="0" allow="pedestrian delivery bicycle" speed="3.65" length="4.67" shape="1367.58,566.32 1368.98,566.66 1369.63,567.28 1369.53,568.17 1368.67,569.33"/>
    </edge>
    <edge id=":1319775957_0" function="internal">
        <lane id=":1319775957_0_0" index="0" allow="pedestrian delivery bicycle" speed="5.08" length="4.96" shape="1405.00,555.37 1404.20,554.28 1403.23,553.69 1402.11,553.61 1400.82,554.03"/>
    </edge>
    <edge id=":1319775957_1" function="internal">
        <lane id=":1319775957_1_0" index="0" allow="pedestrian bicycle" speed="5.56" length="20.16" width="2.00" shape="1405.00,555.37 1402.35,549.02 1402.60,545.31 1405.74,544.23 1411.77,545.78"/>
    </edge>
    <edge id=":1319775957_2" function="internal">
        <lane id=":1319775957_2_0" index="0" allow="pedestrian delivery bicycle" speed="3.65" length="4.67" shape="1405.00,555.37 1405.14,553.94 1405.65,553.21 1406.55,553.18 1407.82,553.87"/>
    </edge>
    <edge id=":1319775957_3" function="internal">
        <lane id=":1319775957_3_0" index="0" allow="pedestrian bicycle" speed="5.56" length="13.02" width="2.00" shape="1413.04,548.41 1408.88,547.28 1406.62,547.81 1406.27,550.01 1407.82,553.87"/>
    </edge>
    <edge id=":1319775957_4" function="internal">
        <lane id=":1319775957_4_0" index="0" allow="pedestrian bicycle" speed="5.56" length="13.48" width="2.00" shape="1413.04,548.41 1410.86,549.07 1406.92,550.92 1402.98,552.92 1400.82,554.03"/>
    </edge>
    <edge id=":1319775957_5" function="internal">
        <lane id=":1319775957_5_0" index="0" allow="pedestrian bicycle" speed="3.30" length="4.26" width="2.00" shape="1413.04,548.41 1411.74,548.22 1411.09,547.73 1411.10,546.91 1411.77,545.78"/>
    </edge>
    <edge id=":1319775957_6" function="internal">
        <lane id=":1319775957_6_0" index="0" allow="pedestrian bicycle" speed="5.56" length="13.52" width="2.00" shape="1399.41,551.17 1401.59,550.09 1405.58,548.17 1409.57,546.41 1411.77,545.78"/>
    </edge>
    <edge id=":1319775957_7" function="internal">
        <lane id=":1319775957_7_0" index="0" allow="pedestrian delivery bicycle" speed="5.56" length="10.01" shape="1399.41,551.17 1402.00,550.31 1404.27,550.48 1406.21,551.66 1407.82,553.87"/>
    </edge>
    <edge id=":1319775957_8" function="internal">
        <lane id=":1319775957_8_0" index="0" allow="pedestrian delivery bicycle" speed="3.65" length="4.67" shape="1399.41,551.17 1400.84,551.35 1401.55,551.89 1401.54,552.78 1400.82,554.03"/>
    </edge>
    <edge id=":1319776056_0" function="internal">
        <lane id=":1319776056_0_0" index="0" allow="pedestrian delivery bicycle" speed="5.56" length="4.41" shape="1563.98,693.14 1562.84,693.29 1561.87,693.70 1561.05,694.36 1560.38,695.29"/>
    </edge>
    <edge id=":1319776056_1" function="internal">
        <lane id=":1319776056_1_0" index="0" allow="pedestrian delivery bicycle" speed="3.65" length="4.67" shape="1563.98,693.14 1562.77,692.36 1562.35,691.56 1562.74,690.76 1563.93,689.94"/>
    </edge>
    <edge id=":1319776056_2" function="internal">
        <lane id=":1319776056_2_0" index="0" allow="pedestrian delivery bicycle" speed="5.56" length="7.78" shape="1557.58,693.75 1558.75,692.11 1560.20,690.92 1561.93,690.20 1563.93,689.94"/>
    </edge>
    <edge id=":1319776056_3" function="internal">
        <lane id=":1319776056_3_0" index="0" allow="pedestrian delivery bicycle" speed="3.65" length="4.67" shape="1557.58,693.75 1558.86,693.08 1559.75,693.12 1560.26,693.86 1560.38,695.29"/>
    </edge>
    <edge id=":1404245359_0" function="internal">
        <lane id=":1404245359_0_0" index="0" allow="pedestrian delivery bicycle" speed="5.56" length="8.76" shape="1324.25,826.36 1321.78,826.38 1320.04,825.58 1319.02,823.95 1318.72,821.51"/>
    </edge>
    <edge id=":1404245359_1" function="internal">
        <lane id=":1404245359_1_0" index="0" allow="pedestrian delivery bicycle" speed="3.65" length="4.67" shape="1324.25,826.36 1322.94,825.75 1322.42,825.02 1322.70,824.17 1323.76,823.20"/>
    </edge>
    <edge id=":1404245359_2" function="internal">
        <lane id=":1404245359_2_0" index="0" allow="pedestrian delivery bicycle" speed="3.90" length="2.92" shape="1321.92,821.58 1322.02,822.39 1322.36,822.93 1322.94,823.20 1323.76,823.20"/>
    </edge>
    <edge id=":1404245359_3" function="internal">
        <lane id=":1404245359_3_0" index="0" allow="pedestrian delivery bicycle" speed="3.65" length="4.67" shape="1321.92,821.58 1321.10,822.76 1320.29,823.14 1319.50,822.73 1318.72,821.51"/>
    </edge>
    <edge id=":1404245372_0" function="internal">
        <lane id=":1404245372_0_0" index="0" allow="pedestrian delivery bicycle" speed="3.65" length="4.67" shape="1323.03,772.44 1323.96,771.34 1324.80,771.03 1325.55,771.52 1326.21,772.80"/>
    </edge>
    <edge id=":1541787763_0" function="internal">
        <lane id=":1541787763_0_0" index="0" allow="pedestrian bicycle" speed="5.56" length="4.99" width="2.00" shape="1459.73,551.60 1458.34,551.06 1457.38,550.70 1456.39,550.49 1454.93,550.39"/>
    </edge>
    <edge id=":1541787763_1" function="internal">
        <lane id=":1541787763_1_0" index="0" allow="pedestrian bicycle" speed="2.89" length="2.92" width="2.00" shape="1459.73,551.60 1459.19,550.87 1459.13,550.32 1459.54,549.93 1460.42,549.72"/>
    </edge>
    <edge id=":1541787763_2" function="internal">
        <lane id=":1541787763_2_0" index="0" allow="pedestrian bicycle" speed="5.56" length="5.63" width="2.00" shape="1454.99,548.39 1456.65,548.50 1457.77,548.73 1458.85,549.12 1460.42,549.72"/>
    </edge>
    <edge id=":1541787763_3" function="internal">
        <lane id=":1541787763_3_0" index="0" allow="pedestrian bicycle" speed="2.89" length="2.92" width="2.00" shape="1454.99,548.39 1455.72,548.92 1455.96,549.42 1455.69,549.91 1454.93,550.39"/>
    </edge>
    <edge id=":1541787770_0" function="internal">
        <lane id=":1541787770_0_0" index="0" allow="pedestrian bicycle" speed="5.56" length="6.50" width="2.00" shape="1530.50,567.32 1528.60,567.68 1527.29,567.89 1525.98,568.00 1524.05,568.03"/>
    </edge>
    <edge id=":1541787770_1" function="internal">
        <lane id=":1541787770_1_0" index="0" allow="pedestrian bicycle" speed="5.20" length="8.68" width="2.00" shape="1530.50,567.32 1528.29,567.36 1527.19,566.42 1527.22,564.50 1528.36,561.60"/>
    </edge>
    <edge id=":1541787770_2" function="internal">
        <lane id=":1541787770_2_0" index="0" allow="pedestrian bicycle" speed="2.89" length="2.92" width="2.00" shape="1530.50,567.32 1529.67,566.97 1529.33,566.52 1529.48,565.98 1530.12,565.35"/>
    </edge>
    <edge id=":1541787770_3" function="internal">
        <lane id=":1541787770_3_0" index="0" allow="pedestrian bicycle" speed="3.57" length="3.56" width="2.00" shape="1530.14,562.50 1529.55,563.86 1529.35,564.79 1529.54,565.29 1530.12,565.35"/>
    </edge>
    <edge id=":1541787770_4" function="internal">
        <lane id=":1541787770_4_0" index="0" allow="pedestrian bicycle" speed="5.56" length="8.62" width="2.00" shape="1530.14,562.50 1528.73,564.91 1527.24,566.64 1525.68,567.68 1524.05,568.03"/>
    </edge>
    <edge id=":1541787770_5" function="internal">
        <lane id=":1541787770_5_0" index="0" allow="pedestrian bicycle" speed="2.89" length="2.92" width="2.00" shape="1530.14,562.50 1529.36,562.95 1528.80,562.95 1528.47,562.50 1528.36,561.60"/>
    </edge>
    <edge id=":1541787770_6" function="internal">
        <lane id=":1541787770_6_0" index="0" allow="pedestrian bicycle" speed="5.56" length="6.44" width="2.00" shape="1524.03,566.03 1525.09,565.75 1526.17,564.92 1527.26,563.54 1528.36,561.60"/>
    </edge>
    <edge id=":1541787770_7" function="internal">
        <lane id=":1541787770_7_0" index="0" allow="pedestrian bicycle" speed="5.56" length="6.15" width="2.00" shape="1524.03,566.03 1525.85,566.00 1527.10,565.90 1528.33,565.70 1530.12,565.35"/>
    </edge>
    <edge id=":1541787770_8" function="internal">
        <lane id=":1541787770_8_0" index="0" allow="pedestrian bicycle" speed="2.89" length="2.92" width="2.00" shape="1524.03,566.03 1524.78,566.53 1525.04,567.03 1524.79,567.53 1524.05,568.03"/>
    </edge>
    <edge id=":1649990368_0" function="internal">
        <lane id=":1649990368_0_0" index="0" speed="8.33" length="4.97" shape="1651.21,953.76 1646.24,953.74"/>
    </edge>
    <edge id=":1649990368_1" function="internal">
        <lane id=":1649990368_1_0" index="0" speed="3.65" length="1.44" shape="1651.21,953.76 1650.02,952.95"/>
    </edge>
    <edge id=":1649990368_4" function="internal">
        <lane id=":1649990368_4_0" index="0" speed="3.65" length="3.23" shape="1650.02,952.95 1649.62,952.15 1650.03,951.35 1651.24,950.56"/>
    </edge>
    <edge id=":1649990368_2" function="internal">
        <lane id=":1649990368_2_0" index="0" speed="8.33" length="4.99" shape="1646.24,950.54 1651.24,950.56"/>
    </edge>
    <edge id=":1649990368_3" function="internal">
        <lane id=":1649990368_3_0" index="0" speed="3.65" length="1.44" shape="1646.24,950.54 1647.44,951.34"/>
    </edge>
    <edge id=":1649990368_5" function="internal">
        <lane id=":1649990368_5_0" index="0" speed="3.65" length="3.23" shape="1647.44,951.34 1647.84,952.14 1647.44,952.94 1646.24,953.74"/>
    </edge>
    <edge id=":1649990495_0" function="internal">
        <lane id=":1649990495_0_0" index="0" allow="pedestrian bicycle" speed="2.89" length="2.92" width="2.00" shape="1652.24,925.06 1651.49,924.57 1651.23,924.07 1651.47,923.57 1652.22,923.06"/>
    </edge>
    <edge id=":17216432_0" function="internal">
        <lane id=":17216432_0_0" index="0" disallow="tram rail_urban rail rail_electric rail_fast ship container cable_car subway aircraft wheelchair scooter drone" speed="4.17" length="9.38" shape="1763.30,1103.90 1772.69,1103.92"/>
        <lane id=":17216432_0_1" index="1" disallow="tram rail_urban rail rail_electric rail_fast ship container cable_car subway aircraft wheelchair scooter drone" speed="4.17" length="9.38" shape="1763.30,1107.10 1772.67,1107.12"/>
    </edge>
    <edge id=":17216432_2" function="internal">
        <lane id=":17216432_2_0" index="0" allow="pedestrian delivery bicycle" speed="4.87" length="7.72" shape="1763.30,1107.10 1766.04,1107.29 1767.99,1107.87 1769.16,1108.84 1769.55,1110.21"/>
    </edge>
    <edge id=":17216432_3" function="internal">
        <lane id=":17216432_3_0" index="0" allow="pedestrian delivery bicycle" speed="4.87" length="7.77" shape="1766.35,1110.20 1766.75,1108.84 1767.93,1107.87 1769.91,1107.30 1772.67,1107.12"/>
    </edge>
    <edge id=":17216432_4" function="internal">
        <lane id=":17216432_4_0" index="0" allow="pedestrian delivery bicycle" speed="3.65" length="4.67" shape="1766.35,1110.20 1767.16,1109.01 1767.96,1108.61 1768.76,1109.01 1769.55,1110.21"/>
    </edge>
    <edge id=":1954602845_0" function="internal">
        <lane id=":1954602845_0_0" index="0" allow="pedestrian delivery bicycle" speed="8.33" length="5.06" shape="1569.11,403.47 1569.07,398.41"/>
    </edge>
    <edge id=":1954602845_1" function="internal">