<?xml version="1.0" encoding="UTF-8"?>

<!-- generated on 2025-04-18 16:29:38 by Eclipse SUMO netedit Version 1.21.0
-->

<routes xmlns:xsi="http://www.w3.org/2001/XMLSchema-instance" xsi:noNamespaceSchemaLocation="http://sumo.dlr.de/xsd/routes_file.xsd">
    <!-- Routes -->
    <route id="r_0" edges="-617654357#7 -617654357#6 -617654357#5 -617654357#4 -617654357#3 -617654357#2 -617654357#1 -617654357#0 -1232571604 -237386420#2 -237386420#1"/>
    <route id="r_1" edges="237386420#1 237386420#2 237386421 617654357#0 617654357#1 617654357#2 617654357#3 617654357#4 617654357#5 617654357#6 617654357#7"/>
    <route id="r_2" edges="-149993777#0 4922743#0 4922743#1 4922743#2 4922743#3 4922743#4 29251749#0 29251749#1 29251749#2"/>
    <route id="r_3" edges="-29251749#2 -29251749#1 -29251749#0 -4922743#4 -4922743#3 -4922743#2 -4922743#1 -4922743#0 149993777#0"/>
    <route id="r_4" edges="-29251749#2 -29251749#1 -29251749#0 -1232571604 -237386420#2 -237386420#1"/>
    <route id="r_5" edges="-149993777#0 4922743#0 4922743#1 4922743#2 4922743#3 4922743#4 -1232571604 -237386420#2 -237386420#1"/>
    <route id="r_6" edges="-149993777#0 4922743#0 4922743#1 4922743#2 4922743#3 4922743#4 617654357#0 617654357#1 617654357#2 617654357#3 617654357#4 617654357#5 617654357#6 617654357#7"/>
    <!-- Vehicles, persons and containers (sorted by depart) -->
    <flow id="f_0" begin="0.00" route="r_3" end="3600.00" vehsPerHour="1800"/>
    <flow id="f_1" begin="0.00" route="r_3" end="3600.00" vehsPerHour="1800"/>
    <flow id="f_10" begin="0.00" route="r_6" end="3600.00" number="1800"/>
    <flow id="f_11" begin="0.00" route="r_6" end="3600.00" number="1800"/>
    <flow id="f_12" begin="0.00" route="r_6" end="3600.00" number="1800"/>
    <flow id="f_13" begin="0.00" route="r_6" end="3600.00" number="1800"/>
    <flow id="f_14" begin="0.00" route="r_6" end="3600.00" number="1800"/>
    <flow id="f_15" begin="0.00" route="r_6" end="3600.00" number="1800"/>
    <flow id="f_16" begin="0.00" route="r_6" end="3600.00" number="1800"/>
    <flow id="f_17" begin="0.00" route="r_6" end="3600.00" number="1800"/>
    <flow id="f_18" begin="0.00" route="r_0" end="3600.00" number="1800"/>
    <flow id="f_19" begin="0.00" route="r_6" end="3600.00" number="1800"/>
    <flow id="f_2" begin="0.00" route="r_3" end="3600.00" vehsPerHour="1800"/>
    <flow id="f_3" begin="0.00" route="r_3" end="3600.00" vehsPerHour="1800"/>
    <flow id="f_4" begin="0.00" route="r_3" end="3600.00" vehsPerHour="1800"/>
    <flow id="f_5" begin="0.00" route="r_3" end="3600.00" vehsPerHour="1800"/>
    <flow id="f_6" begin="0.00" route="r_3" end="3600.00" vehsPerHour="1800"/>
    <flow id="f_7" begin="0.00" route="r_6" end="3600.00" number="1800"/>
    <flow id="f_8" begin="0.00" route="r_6" end="3600.00" number="1800"/>
    <flow id="f_9" begin="0.00" route="r_6" end="3600.00" number="1800"/>
</routes>
