<?xml version="1.0" encoding="UTF-8"?>

<!-- generated on 2025-04-18 16:29:30 by Eclipse SUMO sumo Version 1.21.0
-->

<sumoConfiguration xmlns:xsi="http://www.w3.org/2001/XMLSchema-instance" xsi:noNamespaceSchemaLocation="http://sumo.dlr.de/xsd/sumoConfiguration.xsd">

    <input>
        <net-file value="intersectionsumo.net.xml"/>
        <route-files value="aprileighteenn.rou.xml"/>
        <additional-files value="aprileighteenn.add.xml"/>
    </input>

</sumoConfiguration>
