<?xml version="1.0" encoding="UTF-8"?>

<!-- generated on 2025-02-27 15:07:29 by Eclipse SUMO netedit Version 1.21.0
-->

<routes xmlns:xsi="http://www.w3.org/2001/XMLSchema-instance" xsi:noNamespaceSchemaLocation="http://sumo.dlr.de/xsd/routes_file.xsd">
    <!-- Vehicles, persons and containers (sorted by depart) -->
    <trip id="t_0" depart="0.00" from="4922743#0" to="29251749#2" via="4922743#1 4922743#2 4922743#3 4922743#4 29251749#0 29251749#1"/>
    <trip id="t_1" depart="0.00" from="237386420#1" to="617654357#6" via="237386420#2 237386421 617654357#0 617654357#1 617654357#2 617654357#3 617654357#4 617654357#5"/>
    <trip id="t_2" type="DEFAULT_BIKETYPE" depart="0.00" from="-29251749#2" to="149993777#0" via="-29251749#1 -29251749#0 -4922743#4 -4922743#3 -4922743#2 -4922743#1 -4922743#0"/>
</routes>
