<?xml version="1.0" encoding="UTF-8"?>

<!-- generated on 2025-04-18 16:29:37 by Eclipse SUMO netedit Version 1.21.0
<neteditConfiguration xmlns:xsi="http://www.w3.org/2001/XMLSchema-instance" xsi:noNamespaceSchemaLocation="http://sumo.dlr.de/xsd/neteditConfiguration.xsd">

    <input>
        <sumocfg-file value="C:\Users\Zachary\Downloads\working SUMO files for intersection\aprileighteenn.sumocfg"/>
        <additional-files value="C:\Users\Zachary\Downloads\working SUMO files for intersection\aprileighteenn.add.xml"/>
        <route-files value="C:\Users\Zachary\Downloads\working SUMO files for intersection\aprileighteenn.rou.xml"/>
        <sumo-net-file value="C:\Users\Zachary\Downloads\working SUMO files for intersection\intersectionsumo.net.xml"/>
    </input>

    <output>
        <output-file value="C:\Users\Zachary\Downloads\working SUMO files for intersection\intersectionsumo.net.xml"/>
    </output>

    <processing>
        <geometry.min-radius.fix.railways value="false"/>
        <geometry.max-grade.fix value="false"/>
        <offset.disable-normalization value="true"/>
        <lefthand value="0"/>
    </processing>

    <junctions>
        <no-turnarounds value="true"/>
        <junctions.corner-detail value="5"/>
        <junctions.limit-turn-speed value="5.50"/>
        <rectangular-lane-cut value="0"/>
    </junctions>

    <pedestrian>
        <walkingareas value="0"/>
    </pedestrian>

</neteditConfiguration>
-->

<net version="1.20" junctionCornerDetail="5" limitTurnSpeed="5.50" xmlns:xsi="http://www.w3.org/2001/XMLSchema-instance" xsi:noNamespaceSchemaLocation="http://sumo.dlr.de/xsd/net_file.xsd">

    <location netOffset="-290458.46,-1619826.08" convBoundary="0.00,0.00,2145.77,1717.34" origBoundary="121.054334,14.643858,121.074303,14.659428" projParameter="+proj=utm +zone=51 +ellps=WGS84 +datum=WGS84 +units=m +no_defs"/>

    <type id="highway.footway" priority="1" numLanes="1" speed="2.78" allow="pedestrian" oneway="1" width="2.00"/>
    <type id="highway.path" priority="1" numLanes="1" speed="5.56" allow="pedestrian bicycle" oneway="0" width="2.00"/>
    <type id="highway.pedestrian" priority="1" numLanes="1" speed="2.78" allow="pedestrian" oneway="1" width="2.00"/>
    <type id="highway.residential" priority="3" numLanes="1" speed="13.89" disallow="tram rail_urban rail rail_electric rail_fast ship container cable_car subway aircraft wheelchair scooter drone" oneway="0"/>
    <type id="highway.secondary" priority="11" numLanes="1" speed="27.78" disallow="tram rail_urban rail rail_electric rail_fast ship container cable_car subway aircraft wheelchair scooter drone" oneway="0"/>
    <type id="highway.service" priority="1" numLanes="1" speed="5.56" allow="pedestrian delivery bicycle" oneway="0"/>
    <type id="highway.steps" priority="1" numLanes="1" speed="1.39" allow="pedestrian" oneway="1" width="2.00"/>
    <type id="highway.tertiary" priority="10" numLanes="1" speed="22.22" disallow="tram rail_urban rail rail_electric rail_fast ship container cable_car subway aircraft wheelchair scooter drone" oneway="0"/>
    <type id="highway.unclassified" priority="4" numLanes="1" speed="13.89" disallow="tram rail_urban rail rail_electric rail_fast ship container cable_car subway aircraft wheelchair scooter drone" oneway="0"/>

    <edge id=":10010394198_0" function="internal">
        <lane id=":10010394198_0_0" index="0" disallow="tram rail_urban rail rail_electric rail_fast ship container cable_car subway aircraft wheelchair scooter drone" speed="13.89" length="6.92" shape="1057.79,409.15 1056.05,408.07 1054.80,407.42 1053.49,406.91 1051.55,406.24"/>
    </edge>
    <edge id=":10010394198_1" function="internal">
        <lane id=":10010394198_1_0" index="0" allow="pedestrian bicycle" speed="7.09" length="6.56" width="2.00" shape="1057.79,409.15 1056.32,407.99 1055.29,406.71 1054.71,405.31 1054.57,403.78"/>
    </edge>
    <edge id=":10010394198_2" function="internal">
        <lane id=":10010394198_2_0" index="0" allow="pedestrian bicycle" speed="5.12" length="6.79" width="2.00" shape="1056.57,403.89 1056.17,405.55 1055.21,406.50 1053.66,406.73 1051.55,406.24"/>
    </edge>
    <edge id=":10010394198_3" function="internal">
        <lane id=":10010394198_3_0" index="0" allow="pedestrian bicycle" speed="2.89" length="2.92" width="2.00" shape="1056.57,403.89 1056.03,404.61 1055.52,404.84 1055.03,404.56 1054.57,403.78"/>
    </edge>
    <edge id=":10170940895_0" function="internal">
        <lane id=":10170940895_0_0" index="0" allow="pedestrian delivery bicycle" speed="3.65" length="4.67" shape="1663.14,246.35 1663.24,244.92 1663.74,244.17 1664.63,244.12 1665.92,244.77"/>
    </edge>
    <edge id=":10172784700_0" function="internal">
        <lane id=":10172784700_0_0" index="0" disallow="tram rail_urban rail rail_electric rail_fast ship container cable_car subway aircraft wheelchair scooter drone" speed="13.89" length="5.01" shape="790.95,336.43 785.94,336.52"/>
    </edge>
    <edge id=":10172784700_1" function="internal">
        <lane id=":10172784700_1_0" index="0" disallow="tram rail_urban rail rail_electric rail_fast ship container cable_car subway aircraft wheelchair scooter drone" speed="13.89" length="5.01" shape="785.89,333.32 790.89,333.23"/>
    </edge>
    <edge id=":10588706409_0" function="internal">
        <lane id=":10588706409_0_0" index="0" allow="pedestrian delivery bicycle" speed="5.56" length="5.06" shape="1102.14,767.56 1102.35,768.78 1102.88,769.85 1103.71,770.77 1104.85,771.55"/>
    </edge>
    <edge id=":10588706409_1" function="internal">
        <lane id=":10588706409_1_0" index="0" allow="pedestrian delivery bicycle" speed="5.56" length="4.96" shape="1096.38,771.63 1097.54,770.85 1098.36,769.93 1098.83,768.88 1098.95,767.70"/>
    </edge>
    <edge id=":10588706409_2" function="internal">
        <lane id=":10588706409_2_0" index="0" allow="pedestrian delivery bicycle" speed="5.56" length="8.84" shape="1096.38,771.63 1098.55,770.75 1100.68,770.45 1102.78,770.72 1104.85,771.55"/>
    </edge>
    <edge id=":10588706410_0" function="internal">
        <lane id=":10588706410_0_0" index="0" allow="pedestrian delivery bicycle" speed="5.08" length="5.01" shape="1097.67,738.49 1097.42,737.14 1096.81,736.18 1095.82,735.61 1094.48,735.45"/>
    </edge>
    <edge id=":10588706410_1" function="internal">
        <lane id=":10588706410_1_0" index="0" allow="pedestrian delivery bicycle" speed="5.56" length="10.12" shape="1097.67,738.49 1097.95,735.73 1099.03,733.72 1100.94,732.44 1103.66,731.91"/>
    </edge>
    <edge id=":10588706410_2" function="internal">
        <lane id=":10588706410_2_0" index="0" allow="pedestrian delivery bicycle" speed="3.65" length="4.67" shape="1097.67,738.49 1098.42,737.26 1099.20,736.82 1100.02,737.19 1100.87,738.35"/>
    </edge>
    <edge id=":10588706410_3" function="internal">
        <lane id=":10588706410_3_0" index="0" allow="pedestrian delivery bicycle" speed="5.05" length="4.99" shape="1103.82,735.11 1102.48,735.37 1101.54,736.00 1101.01,736.99 1100.87,738.35"/>
    </edge>
    <edge id=":10588706410_4" function="internal">
        <lane id=":10588706410_4_0" index="0" allow="pedestrian delivery bicycle" speed="5.56" length="9.35" shape="1103.82,735.11 1094.48,735.45"/>
    </edge>
    <edge id=":10588706410_5" function="internal">
        <lane id=":10588706410_5_0" index="0" allow="pedestrian delivery bicycle" speed="3.65" length="4.67" shape="1103.82,735.11 1102.58,734.37 1102.14,733.59 1102.50,732.77 1103.66,731.91"/>
    </edge>
    <edge id=":10588706410_6" function="internal">
        <lane id=":10588706410_6_0" index="0" allow="pedestrian delivery bicycle" speed="5.56" length="9.26" shape="1094.41,732.25 1103.66,731.91"/>
    </edge>
    <edge id=":10588706410_7" function="internal">
        <lane id=":10588706410_7_0" index="0" allow="pedestrian delivery bicycle" speed="5.56" length="10.09" shape="1094.41,732.25 1097.13,732.58 1099.12,733.71 1100.37,735.63 1100.87,738.35"/>
    </edge>
    <edge id=":10588706410_8" function="internal">
        <lane id=":10588706410_8_0" index="0" allow="pedestrian delivery bicycle" speed="3.65" length="4.67" shape="1094.41,732.25 1095.63,733.02 1096.04,733.81 1095.66,734.62 1094.48,735.45"/>
    </edge>
    <edge id=":10588706422_0" function="internal">
        <lane id=":10588706422_0_0" index="0" allow="pedestrian delivery bicycle" speed="5.56" length="0.55" shape="1108.12,781.64 1108.07,781.80 1108.03,781.90 1107.97,782.00 1107.88,782.13"/>
    </edge>
    <edge id=":1096054480_0" function="internal">
        <lane id=":1096054480_0_0" index="0" disallow="tram rail_urban rail rail_electric rail_fast ship container cable_car subway aircraft wheelchair scooter drone" speed="3.65" length="4.67" shape="727.94,337.85 726.72,337.09 726.29,336.30 726.66,335.49 727.84,334.65"/>
    </edge>
    <edge id=":11155312248_0" function="internal">
        <lane id=":11155312248_0_0" index="0" allow="pedestrian delivery bicycle" speed="5.56" length="8.01" shape="928.17,923.64 926.64,923.36 925.55,922.23 924.91,920.27 924.72,917.46"/>
    </edge>
    <edge id=":11155312248_1" function="internal">
        <lane id=":11155312248_1_0" index="0" allow="pedestrian delivery bicycle" speed="3.65" length="4.67" shape="928.17,923.64 926.91,922.94 926.45,922.17 926.79,921.34 927.93,920.45"/>
    </edge>
    <edge id=":11155312248_2" function="internal">
        <lane id=":11155312248_2_0" index="0" allow="pedestrian delivery bicycle" speed="5.56" length="9.22" shape="923.84,926.61 924.34,923.92 924.59,922.06 924.69,920.19 924.72,917.46"/>
    </edge>
    <edge id=":11155312248_3" function="internal">
        <lane id=":11155312248_3_0" index="0" allow="pedestrian delivery bicycle" speed="5.56" length="7.87" shape="923.84,926.61 924.52,924.00 925.43,922.11 926.57,920.92 927.93,920.45"/>
    </edge>
    <edge id=":11155312249_0" function="internal">
        <lane id=":11155312249_0_0" index="0" allow="pedestrian delivery bicycle" speed="5.01" length="5.04" shape="1087.61,914.33 1087.35,912.97 1086.72,912.03 1085.71,911.52 1084.32,911.43"/>
    </edge>
    <edge id=":11155312249_1" function="internal">
        <lane id=":11155312249_1_0" index="0" disallow="tram rail_urban rail rail_electric rail_fast ship container cable_car subway aircraft wheelchair scooter drone" speed="8.33" length="9.40" shape="1087.61,914.33 1087.18,904.94"/>
    </edge>
    <edge id=":11155312249_2" function="internal">
        <lane id=":11155312249_2_0" index="0" disallow="tram rail_urban rail rail_electric rail_fast ship container cable_car subway aircraft wheelchair scooter drone" speed="8.33" length="9.40" shape="1090.38,904.79 1090.81,914.19"/>
    </edge>
    <edge id=":11155312249_3" function="internal">
        <lane id=":11155312249_3_0" index="0" allow="pedestrian delivery bicycle" speed="6.94" length="3.20" shape="1090.38,904.79 1090.11,907.51 1089.88,907.92"/>
    </edge>
    <edge id=":11155312249_7" function="internal">
        <lane id=":11155312249_7_0" index="0" allow="pedestrian delivery bicycle" speed="6.94" length="6.97" shape="1089.88,907.92 1089.00,909.52 1087.08,910.83 1084.32,911.43"/>
    </edge>
    <edge id=":11155312249_4" function="internal">
        <lane id=":11155312249_4_0" index="0" allow="pedestrian delivery bicycle" speed="5.15" length="5.13" shape="1084.07,908.24 1085.49,907.94 1086.47,907.29 1087.04,906.29 1087.18,904.94"/>
    </edge>
    <edge id=":11155312249_5" function="internal">
        <lane id=":11155312249_5_0" index="0" allow="pedestrian delivery bicycle" speed="6.83" length="10.32" shape="1084.07,908.24 1086.91,908.42 1088.98,909.48 1090.28,911.40 1090.81,914.19"/>
    </edge>
    <edge id=":11155312249_6" function="internal">
        <lane id=":11155312249_6_0" index="0" allow="pedestrian delivery bicycle" speed="3.65" length="4.67" shape="1084.07,908.24 1085.33,908.94 1085.79,909.71 1085.46,910.54 1084.32,911.43"/>
    </edge>
    <edge id=":11181030091_0" function="internal">
        <lane id=":11181030091_0_0" index="0" allow="pedestrian delivery bicycle" speed="5.33" length="5.35" shape="984.91,919.21 983.62,919.53 982.69,920.26 982.12,921.40 981.93,922.95"/>
    </edge>
    <edge id=":11181030091_1" function="internal">
        <lane id=":11181030091_1_0" index="0" allow="pedestrian delivery bicycle" speed="5.56" length="9.42" shape="984.91,919.21 975.52,919.94"/>
    </edge>
    <edge id=":11181030091_2" function="internal">
        <lane id=":11181030091_2_0" index="0" allow="pedestrian delivery bicycle" speed="3.65" length="4.67" shape="984.91,919.21 983.65,918.50 983.19,917.74 983.53,916.91 984.66,916.02"/>
    </edge>
    <edge id=":11181030091_3" function="internal">
        <lane id=":11181030091_3_0" index="0" allow="pedestrian delivery bicycle" speed="5.56" length="9.42" shape="975.27,916.75 984.66,916.02"/>
    </edge>
    <edge id=":11181030091_4" function="internal">
        <lane id=":11181030091_4_0" index="0" allow="pedestrian delivery bicycle" speed="5.56" length="10.58" shape="975.27,916.75 978.20,916.94 980.29,918.04 981.53,920.04 981.93,922.95"/>
    </edge>
    <edge id=":11181030091_5" function="internal">
        <lane id=":11181030091_5_0" index="0" allow="pedestrian delivery bicycle" speed="3.65" length="4.67" shape="975.27,916.75 976.53,917.46 976.99,918.22 976.65,919.05 975.52,919.94"/>
    </edge>
    <edge id=":11181030091_6" function="internal">
        <lane id=":11181030091_6_0" index="0" allow="pedestrian delivery bicycle" speed="4.95" length="5.10" shape="978.73,922.93 978.54,921.53 977.94,920.56 976.93,920.04 975.52,919.94"/>
    </edge>
    <edge id=":11181030091_7" function="internal">
        <lane id=":11181030091_7_0" index="0" allow="pedestrian delivery bicycle" speed="5.56" length="10.20" shape="978.73,922.93 979.12,920.08 980.23,917.98 982.08,916.62 984.66,916.02"/>
    </edge>
    <edge id=":11181030091_8" function="internal">
        <lane id=":11181030091_8_0" index="0" allow="pedestrian delivery bicycle" speed="3.65" length="4.67" shape="978.73,922.93 979.54,921.74 980.34,921.34 981.14,921.75 981.93,922.95"/>
    </edge>
    <edge id=":11299456648_0" function="internal">
        <lane id=":11299456648_0_0" index="0" disallow="tram rail_urban rail rail_electric rail_fast ship container cable_car subway aircraft wheelchair scooter drone" speed="6.51" length="9.05" shape="853.93,548.84 853.55,546.39 852.48,544.64 850.71,543.61 848.26,543.30"/>
    </edge>
    <edge id=":11299456648_1" function="internal">
        <lane id=":11299456648_1_0" index="0" disallow="tram rail_urban rail rail_electric rail_fast ship container cable_car subway aircraft wheelchair scooter drone" speed="8.33" length="14.40" shape="853.93,548.84 853.77,534.44"/>
    </edge>
    <edge id=":11299456648_2" function="internal">
        <lane id=":11299456648_2_0" index="0" disallow="tram rail_urban rail rail_electric rail_fast ship container cable_car subway aircraft wheelchair scooter drone" speed="3.65" length="4.67" shape="853.93,548.84 854.72,547.63 855.51,547.22 856.31,547.61 857.13,548.81"/>
    </edge>
    <edge id=":11299456648_3" function="internal">
        <lane id=":11299456648_3_0" index="0" disallow="tram rail_urban rail rail_electric rail_fast ship container cable_car subway aircraft wheelchair scooter drone" speed="8.33" length="14.40" shape="856.97,534.40 857.13,548.81"/>
    </edge>
    <edge id=":11299456648_4" function="internal">
        <lane id=":11299456648_4_0" index="0" disallow="tram rail_urban rail rail_electric rail_fast ship container cable_car subway aircraft wheelchair scooter drone" speed="8.01" length="14.19" shape="856.97,534.40 856.46,538.25 854.84,541.01 852.11,542.69 848.26,543.30"/>
    </edge>
    <edge id=":11299456648_5" function="internal">
        <lane id=":11299456648_5_0" index="0" disallow="tram rail_urban rail rail_electric rail_fast ship container cable_car subway aircraft wheelchair scooter drone" speed="3.65" length="4.67" shape="856.97,534.40 856.18,535.61 855.39,536.02 854.58,535.63 853.77,534.44"/>
    </edge>
    <edge id=":11299456648_6" function="internal">
        <lane id=":11299456648_6_0" index="0" disallow="tram rail_urban rail rail_electric rail_fast ship container cable_car subway aircraft wheelchair scooter drone" speed="6.51" length="9.02" shape="848.23,540.10 850.68,539.71 852.42,538.64 853.45,536.89 853.77,534.44"/>
    </edge>
    <edge id=":11299456648_7" function="internal">
        <lane id=":11299456648_7_0" index="0" disallow="tram rail_urban rail rail_electric rail_fast ship container cable_car subway aircraft wheelchair scooter drone" speed="8.00" length="14.21" shape="848.23,540.10 852.09,540.59 854.86,542.21 856.54,544.95 857.13,548.81"/>
    </edge>
    <edge id=":11299456648_8" function="internal">
        <lane id=":11299456648_8_0" index="0" disallow="tram rail_urban rail rail_electric rail_fast ship container cable_car subway aircraft wheelchair scooter drone" speed="3.65" length="4.67" shape="848.23,540.10 849.44,540.89 849.84,541.68 849.45,542.48 848.26,543.30"/>
    </edge>
    <edge id=":11299456649_0" function="internal">
        <lane id=":11299456649_0_0" index="0" disallow="tram rail_urban rail rail_electric rail_fast ship container cable_car subway aircraft wheelchair scooter drone" speed="3.65" length="4.67" shape="760.47,544.50 759.26,543.72 758.85,542.92 759.24,542.12 760.43,541.30"/>
    </edge>
    <edge id=":11311299330_0" function="internal">
        <lane id=":11311299330_0_0" index="0" allow="pedestrian bicycle" speed="2.89" length="2.92" width="2.00" shape="1055.93,378.15 1056.47,377.42 1056.98,377.20 1057.47,377.48 1057.93,378.25"/>
    </edge>
    <edge id=":11430446030_0" function="internal">
        <lane id=":11430446030_0_0" index="0" allow="pedestrian delivery bicycle" speed="3.65" length="4.67" shape="850.35,987.32 849.18,986.48 848.81,985.67 849.24,984.88 850.46,984.12"/>
    </edge>
    <edge id=":11430446030_1" function="internal">
        <lane id=":11430446030_1_0" index="0" allow="pedestrian delivery bicycle" speed="5.56" length="3.51" shape="847.41,985.61 848.37,985.40 848.94,984.87 849.51,984.34 850.46,984.12"/>
    </edge>
    <edge id=":11430526573_0" function="internal">
        <lane id=":11430526573_0_0" index="0" allow="pedestrian delivery bicycle" speed="5.07" length="5.04" shape="885.10,1441.08 884.88,1439.71 884.27,1438.73 883.29,1438.16 881.94,1437.99"/>
    </edge>
    <edge id=":11430526573_1" function="internal">
        <lane id=":11430526573_1_0" index="0" allow="pedestrian delivery bicycle" speed="5.56" length="10.21" shape="885.10,1441.08 885.43,1438.30 886.57,1436.30 888.52,1435.08 891.29,1434.63"/>
    </edge>
    <edge id=":11430526573_2" function="internal">
        <lane id=":11430526573_2_0" index="0" allow="pedestrian delivery bicycle" speed="3.65" length="4.67" shape="885.10,1441.08 885.87,1439.86 886.66,1439.44 887.47,1439.82 888.30,1441.00"/>
    </edge>
    <edge id=":11430526573_3" function="internal">
        <lane id=":11430526573_3_0" index="0" allow="pedestrian delivery bicycle" speed="5.03" length="5.01" shape="891.34,1437.83 889.98,1438.05 889.02,1438.65 888.46,1439.63 888.30,1441.00"/>
    </edge>
    <edge id=":11430526573_4" function="internal">
        <lane id=":11430526573_4_0" index="0" allow="pedestrian delivery bicycle" speed="5.56" length="9.40" shape="891.34,1437.83 881.94,1437.99"/>
    </edge>
    <edge id=":11430526573_5" function="internal">
        <lane id=":11430526573_5_0" index="0" allow="pedestrian delivery bicycle" speed="3.65" length="4.67" shape="891.34,1437.83 890.12,1437.05 889.71,1436.26 890.10,1435.45 891.29,1434.63"/>
    </edge>
    <edge id=":11430526573_6" function="internal">
        <lane id=":11430526573_6_0" index="0" allow="pedestrian delivery bicycle" speed="5.56" length="9.40" shape="881.89,1434.79 891.29,1434.63"/>
    </edge>
    <edge id=":11430526573_7" function="internal">
        <lane id=":11430526573_7_0" index="0" allow="pedestrian delivery bicycle" speed="5.56" length="10.16" shape="881.89,1434.79 884.63,1435.14 886.62,1436.29 887.84,1438.24 888.30,1441.00"/>
    </edge>
    <edge id=":11430526573_8" function="internal">
        <lane id=":11430526573_8_0" index="0" allow="pedestrian delivery bicycle" speed="3.65" length="4.67" shape="881.89,1434.79 883.10,1435.57 883.51,1436.36 883.12,1437.17 881.94,1437.99"/>
    </edge>
    <edge id=":11433323756_0" function="internal">
        <lane id=":11433323756_0_0" index="0" allow="pedestrian delivery bicycle" speed="5.56" length="9.30" shape="1169.89,527.88 1160.64,528.85"/>
    </edge>
    <edge id=":11433323756_1" function="internal">
        <lane id=":11433323756_1_0" index="0" allow="pedestrian delivery bicycle" speed="5.56" length="10.22" shape="1169.89,527.88 1167.09,527.74 1165.01,526.74 1163.66,524.87 1163.04,522.13"/>
    </edge>
    <edge id=":11433323756_2" function="internal">
        <lane id=":11433323756_2_0" index="0" allow="pedestrian delivery bicycle" speed="3.65" length="4.67" shape="1169.89,527.88 1168.62,527.19 1168.15,526.43 1168.47,525.60 1169.59,524.69"/>
    </edge>
    <edge id=":11433323756_3" function="internal">
        <lane id=":11433323756_3_0" index="0" allow="pedestrian delivery bicycle" speed="5.03" length="5.02" shape="1166.23,521.87 1166.53,523.22 1167.20,524.13 1168.22,524.63 1169.59,524.69"/>
    </edge>
    <edge id=":11433323756_4" function="internal">
        <lane id=":11433323756_4_0" index="0" allow="pedestrian delivery bicycle" speed="5.56" length="10.11" shape="1166.23,521.87 1166.07,524.66 1165.09,526.75 1163.28,528.15 1160.64,528.85"/>
    </edge>
    <edge id=":11433323756_5" function="internal">
        <lane id=":11433323756_5_0" index="0" allow="pedestrian delivery bicycle" speed="3.65" length="4.67" shape="1166.23,521.87 1165.53,523.14 1164.77,523.60 1163.94,523.26 1163.04,522.13"/>
    </edge>
    <edge id=":11433323756_6" function="internal">
        <lane id=":11433323756_6_0" index="0" allow="pedestrian delivery bicycle" speed="5.13" length="5.08" shape="1160.27,525.67 1161.58,525.32 1162.48,524.61 1162.96,523.55 1163.04,522.13"/>
    </edge>
    <edge id=":11433323756_7" function="internal">
        <lane id=":11433323756_7_0" index="0" allow="pedestrian delivery bicycle" speed="5.56" length="9.37" shape="1160.27,525.67 1169.59,524.69"/>
    </edge>
    <edge id=":11433323756_8" function="internal">
        <lane id=":11433323756_8_0" index="0" allow="pedestrian delivery bicycle" speed="3.65" length="4.67" shape="1160.27,525.67 1161.56,526.33 1162.05,527.08 1161.74,527.92 1160.64,528.85"/>
    </edge>
    <edge id=":11433323758_0" function="internal">
        <lane id=":11433323758_0_0" index="0" allow="pedestrian delivery bicycle" speed="3.65" length="4.67" shape="1096.75,501.60 1095.48,500.93 1095.00,500.17 1095.32,499.34 1096.43,498.42"/>
    </edge>
    <edge id=":11433426518_0" function="internal">
        <lane id=":11433426518_0_0" index="0" allow="pedestrian delivery bicycle" speed="5.56" length="5.00" shape="1564.16,651.36 1559.16,651.28"/>
    </edge>
    <edge id=":11433426518_1" function="internal">
        <lane id=":11433426518_1_0" index="0" allow="pedestrian delivery bicycle" speed="3.65" length="1.44" shape="1564.16,651.36 1562.97,650.54"/>
    </edge>
    <edge id=":11433426518_4" function="internal">
        <lane id=":11433426518_4_0" index="0" allow="pedestrian delivery bicycle" speed="3.65" length="3.23" shape="1562.97,650.54 1562.58,649.73 1563.00,648.94 1564.21,648.16"/>
    </edge>
    <edge id=":11433426518_2" function="internal">
        <lane id=":11433426518_2_0" index="0" allow="pedestrian delivery bicycle" speed="5.56" length="5.00" shape="1559.21,648.08 1564.21,648.16"/>
    </edge>
    <edge id=":11433426518_3" function="internal">
        <lane id=":11433426518_3_0" index="0" allow="pedestrian delivery bicycle" speed="3.65" length="1.44" shape="1559.21,648.08 1560.39,648.90"/>
    </edge>
    <edge id=":11433426518_5" function="internal">
        <lane id=":11433426518_5_0" index="0" allow="pedestrian delivery bicycle" speed="3.65" length="3.23" shape="1560.39,648.90 1560.78,649.71 1560.37,650.50 1559.16,651.28"/>
    </edge>
    <edge id=":11433524230_0" function="internal">
        <lane id=":11433524230_0_0" index="0" allow="pedestrian delivery bicycle" speed="8.33" length="9.50" shape="1254.77,955.82 1248.09,962.56"/>
    </edge>
    <edge id=":11433524230_1" function="internal">
        <lane id=":11433524230_1_0" index="0" allow="pedestrian delivery bicycle" speed="6.95" length="2.96" shape="1254.77,955.82 1252.73,957.30 1252.30,957.39"/>
    </edge>
    <edge id=":11433524230_2" function="internal">
        <lane id=":11433524230_2_0" index="0" allow="pedestrian delivery bicycle" speed="3.65" length="1.44" shape="1254.77,955.82 1253.36,956.11"/>
    </edge>
    <edge id=":11433524230_9" function="internal">
        <lane id=":11433524230_9_0" index="0" allow="pedestrian delivery bicycle" speed="6.95" length="7.33" shape="1252.30,957.39 1250.49,957.81 1248.05,957.36 1245.41,955.95"/>
    </edge>
    <edge id=":11433524230_10" function="internal">
        <lane id=":11433524230_10_0" index="0" allow="pedestrian delivery bicycle" speed="3.65" length="3.23" shape="1253.36,956.11 1252.51,955.83 1252.22,954.98 1252.50,953.56"/>
    </edge>
    <edge id=":11433524230_3" function="internal">
        <lane id=":11433524230_3_0" index="0" allow="pedestrian delivery bicycle" speed="5.69" length="5.78" shape="1247.23,953.32 1248.79,954.18 1250.18,954.51 1251.42,954.30 1252.50,953.56"/>
    </edge>
    <edge id=":11433524230_4" function="internal">
        <lane id=":11433524230_4_0" index="0" allow="pedestrian delivery bicycle" speed="6.74" length="11.07" shape="1247.23,953.32 1249.51,955.44 1250.41,957.69 1249.94,960.06 1248.09,962.56"/>
    </edge>
    <edge id=":11433524230_5" function="internal">
        <lane id=":11433524230_5_0" index="0" allow="pedestrian delivery bicycle" speed="3.65" length="4.67" shape="1247.23,953.32 1247.76,954.66 1247.64,955.54 1246.85,955.97 1245.41,955.95"/>
    </edge>
    <edge id=":11433524230_6" function="internal">
        <lane id=":11433524230_6_0" index="0" allow="pedestrian delivery bicycle" speed="4.87" length="5.22" shape="1245.81,960.31 1246.69,959.13 1246.91,958.01 1246.49,956.95 1245.41,955.95"/>
    </edge>
    <edge id=":11433524230_7" function="internal">
        <lane id=":11433524230_7_0" index="0" allow="pedestrian bus delivery bicycle" speed="8.33" length="9.50" shape="1245.81,960.31 1252.50,953.56"/>
    </edge>
    <edge id=":11433524230_8" function="internal">
        <lane id=":11433524230_8_0" index="0" allow="pedestrian delivery bicycle" speed="3.65" length="1.44" shape="1245.81,960.31 1247.23,960.02"/>
    </edge>
    <edge id=":11433524230_11" function="internal">
        <lane id=":11433524230_11_0" index="0" allow="pedestrian delivery bicycle" speed="3.65" length="3.23" shape="1247.23,960.02 1248.08,960.30 1248.36,961.15 1248.09,962.56"/>
    </edge>
    <edge id=":11433635232_0" function="internal">
        <lane id=":11433635232_0_0" index="0" allow="pedestrian delivery bicycle" speed="3.68" length="4.80" shape="1751.67,890.81 1752.15,889.40 1752.83,888.79 1753.73,888.97 1754.85,889.95"/>
    </edge>
    <edge id=":11433635234_0" function="internal">
        <lane id=":11433635234_0_0" index="0" allow="pedestrian delivery bicycle" speed="5.16" length="5.18" shape="1759.45,924.43 1759.21,923.09 1758.57,922.13 1757.52,921.56 1756.06,921.37"/>
    </edge>
    <edge id=":11433635234_1" function="internal">
        <lane id=":11433635234_1_0" index="0" allow="pedestrian delivery bicycle" speed="5.56" length="6.30" shape="1759.45,924.43 1759.25,918.13"/>
    </edge>
    <edge id=":11433635234_2" function="internal">
        <lane id=":11433635234_2_0" index="0" allow="pedestrian delivery bicycle" speed="4.27" length="3.43" shape="1756.07,918.17 1756.99,918.30 1758.06,918.52 1758.92,918.56 1759.25,918.13"/>
    </edge>
    <edge id=":11433635234_3" function="internal">
        <lane id=":11433635234_3_0" index="0" allow="pedestrian delivery bicycle" speed="3.65" length="4.67" shape="1756.07,918.17 1757.27,918.97 1757.67,919.77 1757.26,920.57 1756.06,921.37"/>
    </edge>
    <edge id=":11433635235_0" function="internal">
        <lane id=":11433635235_0_0" index="0" allow="pedestrian delivery bicycle" speed="3.65" length="4.67" shape="1735.53,921.34 1734.33,920.54 1733.93,919.74 1734.33,918.94 1735.53,918.14"/>
    </edge>
    <edge id=":11433688790_0" function="internal">
        <lane id=":11433688790_0_0" index="0" allow="pedestrian delivery bicycle" speed="5.56" length="9.20" shape="1892.61,955.22 1883.40,955.13"/>
    </edge>
    <edge id=":11433688790_1" function="internal">
        <lane id=":11433688790_1_0" index="0" allow="pedestrian delivery bicycle" speed="5.56" length="10.06" shape="1892.61,955.22 1889.92,954.79 1888.01,953.57 1886.86,951.59 1886.49,948.83"/>
    </edge>
    <edge id=":11433688790_2" function="internal">
        <lane id=":11433688790_2_0" index="0" allow="pedestrian delivery bicycle" speed="3.65" length="4.67" shape="1892.61,955.22 1891.43,954.38 1891.06,953.57 1891.49,952.78 1892.72,952.02"/>
    </edge>
    <edge id=":11433688790_3" function="internal">
        <lane id=":11433688790_3_0" index="0" allow="pedestrian delivery bicycle" speed="5.06" length="5.00" shape="1889.69,948.84 1889.87,950.22 1890.44,951.20 1891.39,951.81 1892.72,952.02"/>
    </edge>
    <edge id=":11433688790_4" function="internal">