<additional>
    <laneData id="lane_emissions" type="emissions" period="3600" file="sd_lane_emissions-dir.xml" excludeEmpty="true"/>
</additional>
