<?xml version='1.0' encoding='utf-8'?>
<trips><trip id="car_0" type="car" depart="36349" from="-29251749#0" to="-4922743#4" /><trip id="car_1" type="car" depart="36384" from="-29251749#0" to="-4922743#4" /><trip id="car_2" type="car" depart="36397" from="-617654357#1" to="-4922743#4" /><trip id="car_3" type="car" depart="36457" from="4922743#4" to="29251749#0" /><trip id="car_4" type="car" depart="36464" from="-29251749#0" to="617654357#1" /><trip id="car_5" type="car" depart="36471" from="-29251749#0" to="617654357#1" /><trip id="car_6" type="car" depart="36489" from="4922743#4" to="29251749#0" /><trip id="car_7" type="car" depart="36642" from="237386421" to="617654357#1" /><trip id="car_8" type="car" depart="36661" from="4922743#4" to="29251749#0" /><trip id="car_9" type="car" depart="36726" from="-29251749#0" to="617654357#1" /><trip id="car_10" type="car" depart="36764" from="-29251749#0" to="617654357#1" /><trip id="car_11" type="car" depart="36773" from="-29251749#0" to="-4922743#4" /><trip id="truck_12" type="truck" depart="36796" from="-617654357#1" to="29251749#0" /><trip id="car_13" type="car" depart="36809" from="-29251749#0" to="617654357#1" /><trip id="car_14" type="car" depart="36822" from="-29251749#0" to="617654357#1" /><trip id="car_15" type="car" depart="36830" from="-29251749#0" to="-1232571604" /><trip id="car_16" type="car" depart="36857" from="4922743#4" to="29251749#0" /><trip id="car_17" type="car" depart="36910" from="-29251749#0" to="617654357#1" /><trip id="car_18" type="car" depart="36945" from="-617654357#1" to="29251749#0" /><trip id="car_19" type="car" depart="37003" from="237386421" to="29251749#0" /><trip id="car_20" type="car" depart="37010" from="237386421" to="29251749#0" /><trip id="car_21" type="car" depart="37034" from="-617654357#1" to="29251749#0" /><trip id="motorcycle_22" type="motorcycle" depart="37037" from="-617654357#1" to="-1232571604" /><trip id="car_23" type="car" depart="37062" from="-29251749#0" to="-4922743#4" /><trip id="car_24" type="car" depart="37065" from="-29251749#0" to="-4922743#4" /><trip id="car_25" type="car" depart="37111" from="-617654357#1" to="29251749#0" /><trip id="car_26" type="car" depart="37175" from="-617654357#1" to="29251749#0" /><trip id="car_27" type="car" depart="37178" from="4922743#4" to="-1232571604" /><trip id="car_28" type="car" depart="37302" from="237386421" to="617654357#1" /><trip id="car_29" type="car" depart="37341" from="-29251749#0" to="617654357#1" /><trip id="car_30" type="car" depart="37343" from="-617654357#1" to="-4922743#4" /><trip id="bus_31" type="bus" depart="37371" from="-617654357#1" to="-4922743#4" /><trip id="car_32" type="car" depart="37375" from="-617654357#1" to="29251749#0" /><trip id="bus_33" type="bus" depart="37426" from="237386421" to="-4922743#4" /><trip id="car_34" type="car" depart="37434" from="4922743#4" to="29251749#0" /><trip id="car_35" type="car" depart="37461" from="-617654357#1" to="29251749#0" /><trip id="car_36" type="car" depart="37479" from="-617654357#1" to="-4922743#4" /><trip id="truck_37" type="truck" depart="37481" from="4922743#4" to="29251749#0" /><trip id="car_38" type="car" depart="37485" from="-617654357#1" to="29251749#0" /><trip id="car_39" type="car" depart="37502" from="-29251749#0" to="-4922743#4" /><trip id="car_40" type="car" depart="37520" from="-617654357#1" to="29251749#0" /><trip id="car_41" type="car" depart="37582" from="237386421" to="-4922743#4" /><trip id="car_42" type="car" depart="37603" from="4922743#4" to="617654357#1" /><trip id="car_43" type="car" depart="37607" from="-617654357#1" to="-4922743#4" /><trip id="car_44" type="car" depart="37626" from="-617654357#1" to="-4922743#4" /><trip id="car_45" type="car" depart="37652" from="4922743#4" to="-1232571604" /><trip id="car_46" type="car" depart="37704" from="237386421" to="617654357#1" /><trip id="car_47" type="car" depart="37722" from="237386421" to="-4922743#4" /><trip id="car_48" type="car" depart="37724" from="-617654357#1" to="-4922743#4" /><trip id="car_49" type="car" depart="37728" from="-617654357#1" to="29251749#0" /><trip id="car_50" type="car" depart="37743" from="-617654357#1" to="29251749#0" /><trip id="car_51" type="car" depart="37786" from="237386421" to="29251749#0" /><trip id="car_52" type="car" depart="37793" from="-29251749#0" to="-1232571604" /><trip id="car_53" type="car" depart="37799" from="-617654357#1" to="-4922743#4" /><trip id="truck_54" type="truck" depart="37800" from="-617654357#1" to="-4922743#4" /><trip id="car_55" type="car" depart="37808" from="-29251749#0" to="-4922743#4" /><trip id="car_56" type="car" depart="37814" from="-617654357#1" to="-4922743#4" /><trip id="car_57" type="car" depart="37828" from="-617654357#1" to="-1232571604" /><trip id="car_58" type="car" depart="37833" from="-617654357#1" to="-1232571604" /><trip id="bus_59" type="bus" depart="37854" from="-617654357#1" to="-4922743#4" /><trip id="car_60" type="car" depart="37867" from="-617654357#1" to="-4922743#4" /><trip id="car_61" type="car" depart="37884" from="4922743#4" to="29251749#0" /><trip id="car_62" type="car" depart="37886" from="237386421" to="29251749#0" /><trip id="car_63" type="car" depart="37895" from="-617654357#1" to="-1232571604" /><trip id="car_64" type="car" depart="37902" from="4922743#4" to="617654357#1" /><trip id="car_65" type="car" depart="37905" from="237386421" to="-4922743#4" /><trip id="car_66" type="car" depart="37925" from="-617654357#1" to="29251749#0" /><trip id="truck_67" type="truck" depart="37968" from="-617654357#1" to="-4922743#4" /><trip id="car_68" type="car" depart="37984" from="-617654357#1" to="-4922743#4" /><trip id="bus_69" type="bus" depart="37987" from="4922743#4" to="-1232571604" /><trip id="car_70" type="car" depart="38006" from="237386421" to="-4922743#4" /><trip id="car_71" type="car" depart="38012" from="237386421" to="-4922743#4" /><trip id="car_72" type="car" depart="38017" from="237386421" to="-4922743#4" /><trip id="bus_73" type="bus" depart="38020" from="-617654357#1" to="29251749#0" /><trip id="car_74" type="car" depart="38022" from="237386421" to="-4922743#4" /><trip id="car_75" type="car" depart="38034" from="-29251749#0" to="-4922743#4" /><trip id="car_76" type="car" depart="38050" from="-617654357#1" to="-4922743#4" /><trip id="truck_77" type="truck" depart="38057" from="-29251749#0" to="-4922743#4" /><trip id="car_78" type="car" depart="38075" from="-29251749#0" to="-4922743#4" /><trip id="car_79" type="car" depart="38077" from="-617654357#1" to="-4922743#4" /><trip id="car_80" type="car" depart="38081" from="-617654357#1" to="29251749#0" /><trip id="car_81" type="car" depart="38084" from="-29251749#0" to="617654357#1" /><trip id="car_82" type="car" depart="38085" from="4922743#4" to="29251749#0" /><trip id="car_83" type="car" depart="38086" from="-617654357#1" to="-4922743#4" /><trip id="car_84" type="car" depart="38100" from="237386421" to="617654357#1" /><trip id="car_85" type="car" depart="38168" from="237386421" to="29251749#0" /><trip id="car_86" type="car" depart="38200" from="-29251749#0" to="-4922743#4" /><trip id="car_87" type="car" depart="38205" from="-617654357#1" to="-4922743#4" /><trip id="truck_88" type="truck" depart="38236" from="-617654357#1" to="-4922743#4" /><trip id="car_89" type="car" depart="38240" from="-617654357#1" to="-1232571604" /><trip id="car_90" type="car" depart="38245" from="4922743#4" to="617654357#1" /><trip id="car_91" type="car" depart="38254" from="-617654357#1" to="-1232571604" /><trip id="car_92" type="car" depart="38262" from="237386421" to="617654357#1" /><trip id="car_93" type="car" depart="38286" from="4922743#4" to="617654357#1" /><trip id="car_94" type="car" depart="38287" from="-617654357#1" to="-1232571604" /><trip id="car_95" type="car" depart="38295" from="237386421" to="-4922743#4" /><trip id="car_96" type="car" depart="38296" from="-617654357#1" to="29251749#0" /><trip id="truck_97" type="truck" depart="38306" from="-29251749#0" to="-4922743#4" /><trip id="bus_98" type="bus" depart="38346" from="-617654357#1" to="-4922743#4" /><trip id="car_99" type="car" depart="38352" from="-617654357#1" to="-4922743#4" /><trip id="car_100" type="car" depart="38356" from="-617654357#1" to="29251749#0" /><trip id="bus_101" type="bus" depart="38369" from="237386421" to="-4922743#4" /><trip id="car_102" type="car" depart="38374" from="-617654357#1" to="-1232571604" /><trip id="car_103" type="car" depart="38396" from="-617654357#1" to="29251749#0" /><trip id="bus_104" type="bus" depart="38496" from="237386421" to="29251749#0" /><trip id="car_105" type="car" depart="38574" from="4922743#4" to="29251749#0" /><trip id="car_106" type="car" depart="38577" from="-617654357#1" to="29251749#0" /><trip id="car_107" type="car" depart="38610" from="4922743#4" to="29251749#0" /><trip id="bus_108" type="bus" depart="38612" from="-617654357#1" to="29251749#0" /><trip id="car_109" type="car" depart="38618" from="-617654357#1" to="29251749#0" /><trip id="car_110" type="car" depart="38641" from="-617654357#1" to="-1232571604" /><trip id="car_111" type="car" depart="38647" from="-617654357#1" to="29251749#0" /><trip id="car_112" type="car" depart="38693" from="237386421" to="29251749#0" /><trip id="car_113" type="car" depart="38711" from="-617654357#1" to="-4922743#4" /><trip id="truck_114" type="truck" depart="38758" from="4922743#4" to="29251749#0" /><trip id="car_115" type="car" depart="38761" from="-617654357#1" to="-4922743#4" /><trip id="car_116" type="car" depart="38779" from="-617654357#1" to="29251749#0" /><trip id="truck_117" type="truck" depart="38783" from="-617654357#1" to="29251749#0" /><trip id="bus_118" type="bus" depart="38786" from="-617654357#1" to="29251749#0" /><trip id="car_119" type="car" depart="38794" from="-617654357#1" to="29251749#0" /><trip id="bus_120" type="bus" depart="38875" from="4922743#4" to="29251749#0" /><trip id="car_121" type="car" depart="38876" from="-29251749#0" to="-4922743#4" /><trip id="car_122" type="car" depart="38887" from="-617654357#1" to="-1232571604" /><trip id="car_123" type="car" depart="38895" from="-617654357#1" to="29251749#0" /><trip id="car_124" type="car" depart="38928" from="237386421" to="29251749#0" /><trip id="car_125" type="car" depart="38930" from="-617654357#1" to="29251749#0" /><trip id="car_126" type="car" depart="38953" from="-617654357#1" to="29251749#0" /><trip id="car_127" type="car" depart="38984" from="237386421" to="29251749#0" /><trip id="car_128" type="car" depart="39000" from="-29251749#0" to="617654357#1" /><trip id="car_129" type="car" depart="39032" from="-29251749#0" to="-1232571604" /><trip id="car_130" type="car" depart="39037" from="4922743#4" to="617654357#1" /><trip id="car_131" type="car" depart="39041" from="-29251749#0" to="-1232571604" /><trip id="truck_132" type="truck" depart="39070" from="237386421" to="29251749#0" /><trip id="car_133" type="car" depart="39087" from="237386421" to="29251749#0" /><trip id="car_134" type="car" depart="39103" from="237386421" to="29251749#0" /><trip id="car_135" type="car" depart="39106" from="237386421" to="29251749#0" /><trip id="car_136" type="car" depart="39116" from="-617654357#1" to="-1232571604" /><trip id="car_137" type="car" depart="39143" from="-617654357#1" to="29251749#0" /><trip id="car_138" type="car" depart="39150" from="237386421" to="617654357#1" /><trip id="car_139" type="car" depart="39155" from="237386421" to="617654357#1" /><trip id="car_140" type="car" depart="39170" from="-617654357#1" to="-4922743#4" /><trip id="car_141" type="car" depart="39174" from="237386421" to="617654357#1" /><trip id="car_142" type="car" depart="39196" from="237386421" to="29251749#0" /><trip id="car_143" type="car" depart="39211" from="4922743#4" to="617654357#1" /><trip id="car_144" type="car" depart="39227" from="-617654357#1" to="29251749#0" /><trip id="car_145" type="car" depart="39275" from="4922743#4" to="617654357#1" /><trip id="car_146" type="car" depart="39291" from="-29251749#0" to="-4922743#4" /><trip id="car_147" type="car" depart="39325" from="-617654357#1" to="29251749#0" /><trip id="car_148" type="car" depart="39330" from="-617654357#1" to="-1232571604" /><trip id="car_149" type="car" depart="39335" from="-617654357#1" to="29251749#0" /><trip id="car_150" type="car" depart="39344" from="-617654357#1" to="29251749#0" /><trip id="car_151" type="car" depart="39449" from="-617654357#1" to="29251749#0" /><trip id="car_152" type="car" depart="39533" from="-617654357#1" to="-1232571604" /><trip id="car_153" type="car" depart="39563" from="-617654357#1" to="29251749#0" /><trip id="truck_154" type="truck" depart="39579" from="4922743#4" to="29251749#0" /><trip id="car_155" type="car" depart="39606" from="-617654357#1" to="-1232571604" /><trip id="car_156" type="car" depart="39619" from="4922743#4" to="29251749#0" /><trip id="car_157" type="car" depart="39631" from="237386421" to="617654357#1" /><trip id="car_158" type="car" depart="39647" from="4922743#4" to="617654357#1" /><trip id="bus_159" type="bus" depart="39650" from="-29251749#0" to="-1232571604" /><trip id="car_160" type="car" depart="39673" from="-617654357#1" to="29251749#0" /><trip id="truck_161" type="truck" depart="39689" from="-29251749#0" to="617654357#1" /><trip id="car_162" type="car" depart="39698" from="-617654357#1" to="-4922743#4" /><trip id="car_163" type="car" depart="39699" from="237386421" to="617654357#1" /><trip id="car_164" type="car" depart="39701" from="-29251749#0" to="-1232571604" /><trip id="truck_165" type="truck" depart="39803" from="-617654357#1" to="29251749#0" /><trip id="car_166" type="car" depart="39860" from="-617654357#1" to="29251749#0" /><trip id="car_167" type="car" depart="39861" from="-617654357#1" to="29251749#0" /><trip id="car_168" type="car" depart="39865" from="-617654357#1" to="29251749#0" /><trip id="car_169" type="car" depart="39868" from="237386421" to="-4922743#4" /><trip id="truck_170" type="truck" depart="39881" from="-29251749#0" to="-4922743#4" /><trip id="car_171" type="car" depart="39888" from="237386421" to="617654357#1" /><trip id="car_172" type="car" depart="39900" from="4922743#4" to="29251749#0" /><trip id="truck_173" type="truck" depart="39904" from="237386421" to="29251749#0" /><trip id="bus_174" type="bus" depart="39913" from="4922743#4" to="29251749#0" /><trip id="car_175" type="car" depart="39916" from="237386421" to="-4922743#4" /><trip id="car_176" type="car" depart="39916" from="4922743#4" to="617654357#1" /><trip id="car_177" type="car" depart="39921" from="-617654357#1" to="29251749#0" /><trip id="car_178" type="car" depart="39930" from="-29251749#0" to="-4922743#4" /><trip id="car_179" type="car" depart="39935" from="-617654357#1" to="29251749#0" /><trip id="car_180" type="car" depart="39943" from="-617654357#1" to="-1232571604" /><trip id="car_181" type="car" depart="39972" from="-617654357#1" to="-4922743#4" /><trip id="car_182" type="car" depart="39983" from="-617654357#1" to="29251749#0" /><trip id="car_183" type="car" depart="40000" from="-617654357#1" to="-1232571604" /><trip id="car_184" type="car" depart="40004" from="-617654357#1" to="29251749#0" /><trip id="car_185" type="car" depart="40027" from="-617654357#1" to="-1232571604" /><trip id="car_186" type="car" depart="40087" from="237386421" to="617654357#1" /><trip id="car_187" type="car" depart="40089" from="-29251749#0" to="617654357#1" /><trip id="bus_188" type="bus" depart="40090" from="-29251749#0" to="-1232571604" /><trip id="car_189" type="car" depart="40100" from="-29251749#0" to="617654357#1" /><trip id="car_190" type="car" depart="40120" from="4922743#4" to="617654357#1" /><trip id="car_191" type="car" depart="40126" from="-617654357#1" to="29251749#0" /><trip id="truck_192" type="truck" depart="40143" from="-617654357#1" to="29251749#0" /><trip id="car_193" type="car" depart="40148" from="-617654357#1" to="29251749#0" /><trip id="car_194" type="car" depart="40157" from="-617654357#1" to="29251749#0" /><trip id="car_195" type="car" depart="40181" from="237386421" to="617654357#1" /><trip id="car_196" type="car" depart="40204" from="4922743#4" to="617654357#1" /><trip id="truck_197" type="truck" depart="40238" from="4922743#4" to="29251749#0" /><trip id="car_198" type="car" depart="40239" from="-617654357#1" to="29251749#0" /><trip id="car_199" type="car" depart="40260" from="-617654357#1" to="-4922743#4" /><trip id="car_200" type="car" depart="40267" from="-617654357#1" to="29251749#0" /><trip id="bus_201" type="bus" depart="40279" from="4922743#4" to="29251749#0" /><trip id="car_202" type="car" depart="40281" from="-617654357#1" to="29251749#0" /><trip id="car_203" type="car" depart="40346" from="4922743#4" to="29251749#0" /><trip id="car_204" type="car" depart="40360" from="4922743#4" to="29251749#0" /><trip id="truck_205" type="truck" depart="40379" from="-617654357#1" to="29251749#0" /><trip id="car_206" type="car" depart="40410" from="-29251749#0" to="617654357#1" /><trip id="car_207" type="car" depart="40423" from="-29251749#0" to="617654357#1" /><trip id="car_208" type="car" depart="40453" from="-29251749#0" to="-4922743#4" /><trip id="car_209" type="car" depart="40467" from="-29251749#0" to="617654357#1" /><trip id="car_210" type="car" depart="40490" from="-29251749#0" to="617654357#1" /><trip id="car_211" type="car" depart="40493" from="-29251749#0" to="-1232571604" /><trip id="motorcycle_212" type="motorcycle" depart="40502" from="237386421" to="-4922743#4" /><trip id="truck_213" type="truck" depart="40520" from="-29251749#0" to="-1232571604" /><trip id="car_214" type="car" depart="40575" from="-617654357#1" to="29251749#0" /><trip id="car_215" type="car" depart="40586" from="-29251749#0" to="-4922743#4" /><trip id="car_216" type="car" depart="40595" from="-617654357#1" to="29251749#0" /><trip id="car_217" type="car" depart="40597" from="-29251749#0" to="-4922743#4" /><trip id="car_218" type="car" depart="40618" from="4922743#4" to="29251749#0" /><trip id="car_219" type="car" depart="40622" from="237386421" to="617654357#1" /><trip id="car_220" type="car" depart="40627" from="4922743#4" to="617654357#1" /><trip id="truck_221" type="truck" depart="40631" from="237386421" to="29251749#0" /><trip id="car_222" type="car" depart="40637" from="-617654357#1" to="29251749#0" /><trip id="bus_223" type="bus" depart="40645" from="-29251749#0" to="-1232571604" /><trip id="car_224" type="car" depart="40703" from="-617654357#1" to="-4922743#4" /><trip id="bus_225" type="bus" depart="40707" from="237386421" to="29251749#0" /><trip id="car_226" type="car" depart="40709" from="-29251749#0" to="-1232571604" /><trip id="car_227" type="car" depart="40716" from="-29251749#0" to="-4922743#4" /><trip id="car_228" type="car" depart="40730" from="-617654357#1" to="29251749#0" /><trip id="car_229" type="car" depart="40732" from="-29251749#0" to="617654357#1" /><trip id="car_230" type="car" depart="40746" from="-617654357#1" to="29251749#0" /><trip id="car_231" type="car" depart="40754" from="237386421" to="617654357#1" /><trip id="car_232" type="car" depart="40759" from="-617654357#1" to="29251749#0" /><trip id="car_233" type="car" depart="40784" from="4922743#4" to="617654357#1" /><trip id="car_234" type="car" depart="40787" from="-617654357#1" to="-4922743#4" /><trip id="car_235" type="car" depart="40796" from="-617654357#1" to="29251749#0" /><trip id="car_236" type="car" depart="40800" from="-617654357#1" to="-4922743#4" /><trip id="car_237" type="car" depart="40828" from="-29251749#0" to="617654357#1" /><trip id="bus_238" type="bus" depart="40854" from="-617654357#1" to="29251749#0" /><trip id="car_239" type="car" depart="40870" from="4922743#4" to="29251749#0" /><trip id="car_240" type="car" depart="40873" from="-617654357#1" to="29251749#0" /><trip id="car_241" type="car" depart="40880" from="-29251749#0" to="617654357#1" /><trip id="car_242" type="car" depart="40947" from="4922743#4" to="617654357#1" /><trip id="car_243" type="car" depart="40951" from="-617654357#1" to="-1232571604" /><trip id="truck_244" type="truck" depart="40954" from="-617654357#1" to="29251749#0" /><trip id="car_245" type="car" depart="40973" from="-617654357#1" to="-1232571604" /><trip id="car_246" type="car" depart="40989" from="-617654357#1" to="-1232571604" /><trip id="car_247" type="car" depart="41002" from="-617654357#1" to="-4922743#4" /><trip id="car_248" type="car" depart="41036" from="4922743#4" to="29251749#0" /><trip id="car_249" type="car" depart="41055" from="237386421" to="29251749#0" /><trip id="car_250" type="car" depart="41102" from="-617654357#1" to="-1232571604" /><trip id="truck_251" type="truck" depart="41120" from="4922743#4" to="29251749#0" /><trip id="car_252" type="car" depart="41125" from="-617654357#1" to="-1232571604" /><trip id="car_253" type="car" depart="41146" from="-617654357#1" to="29251749#0" /><trip id="car_254" type="car" depart="41185" from="-617654357#1" to="29251749#0" /><trip id="car_255" type="car" depart="41186" from="4922743#4" to="617654357#1" /><trip id="car_256" type="car" depart="41191" from="-617654357#1" to="29251749#0" /><trip id="car_257" type="car" depart="41200" from="237386421" to="617654357#1" /><trip id="car_258" type="car" depart="41213" from="-617654357#1" to="-1232571604" /><trip id="truck_259" type="truck" depart="41227" from="237386421" to="29251749#0" /><trip id="car_260" type="car" depart="41238" from="4922743#4" to="29251749#0" /><trip id="car_261" type="car" depart="41239" from="-617654357#1" to="-1232571604" /><trip id="truck_262" type="truck" depart="41248" from="4922743#4" to="29251749#0" /><trip id="truck_263" type="truck" depart="41252" from="237386421" to="29251749#0" /><trip id="car_264" type="car" depart="41263" from="-617654357#1" to="29251749#0" /><trip id="car_265" type="car" depart="41275" from="4922743#4" to="617654357#1" /><trip id="car_266" type="car" depart="41282" from="4922743#4" to="29251749#0" /><trip id="car_267" type="car" depart="41289" from="-29251749#0" to="-1232571604" /><trip id="car_268" type="car" depart="41291" from="-29251749#0" to="-1232571604" /><trip id="car_269" type="car" depart="41326" from="4922743#4" to="29251749#0" /><trip id="car_270" type="car" depart="41330" from="237386421" to="617654357#1" /><trip id="car_271" type="car" depart="41332" from="237386421" to="29251749#0" /><trip id="car_272" type="car" depart="41346" from="-29251749#0" to="617654357#1" /><trip id="car_273" type="car" depart="41350" from="-617654357#1" to="-1232571604" /><trip id="car_274" type="car" depart="41363" from="4922743#4" to="29251749#0" /><trip id="car_275" type="car" depart="41376" from="-617654357#1" to="29251749#0" /><trip id="car_276" type="car" depart="41396" from="-29251749#0" to="617654357#1" /><trip id="car_277" type="car" depart="41406" from="4922743#4" to="617654357#1" /><trip id="bus_278" type="bus" depart="41458" from="4922743#4" to="29251749#0" /><trip id="car_279" type="car" depart="41464" from="-617654357#1" to="-4922743#4" /><trip id="car_280" type="car" depart="41524" from="-29251749#0" to="-4922743#4" /><trip id="bus_281" type="bus" depart="41528" from="-617654357#1" to="29251749#0" /><trip id="car_282" type="car" depart="41747" from="-617654357#1" to="29251749#0" /><trip id="car_283" type="car" depart="41767" from="4922743#4" to="617654357#1" /><trip id="car_284" type="car" depart="41869" from="-617654357#1" to="-1232571604" /><trip id="truck_285" type="truck" depart="41881" from="-29251749#0" to="-4922743#4" /><trip id="car_286" type="car" depart="41899" from="237386421" to="617654357#1" /><trip id="car_287" type="car" depart="41921" from="4922743#4" to="617654357#1" /><trip id="car_288" type="car" depart="41930" from="-617654357#1" to="29251749#0" /><trip id="car_289" type="car" depart="41942" from="237386421" to="29251749#0" /><trip id="car_290" type="car" depart="41960" from="-617654357#1" to="29251749#0" /><trip id="car_291" type="car" depart="41975" from="237386421" to="29251749#0" /><trip id="bus_292" type="bus" depart="41989" from="-617654357#1" to="29251749#0" /><trip id="truck_293" type="truck" depart="41998" from="-617654357#1" to="29251749#0" /><trip id="car_294" type="car" depart="42005" from="237386421" to="29251749#0" /><trip id="car_295" type="car" depart="42021" from="237386421" to="29251749#0" /><trip id="car_296" type="car" depart="42024" from="-617654357#1" to="-4922743#4" /><trip id="car_297" type="car" depart="42030" from="-617654357#1" to="-4922743#4" /><trip id="car_298" type="car" depart="42041" from="-617654357#1" to="-1232571604" /><trip id="car_299" type="car" depart="42064" from="-617654357#1" to="-4922743#4" /><trip id="car_300" type="car" depart="42091" from="-29251749#0" to="-4922743#4" /><trip id="car_301" type="car" depart="42116" from="-617654357#1" to="29251749#0" /><trip id="car_302" type="car" depart="42135" from="237386421" to="-4922743#4" /><trip id="car_303" type="car" depart="42142" from="-29251749#0" to="-1232571604" /><trip id="car_304" type="car" depart="42146" from="237386421" to="617654357#1" /><trip id="car_305" type="car" depart="42146" from="4922743#4" to="29251749#0" /><trip id="car_306" type="car" depart="42171" from="237386421" to="617654357#1" /><trip id="bus_307" type="bus" depart="42196" from="4922743#4" to="29251749#0" /><trip id="car_308" type="car" depart="42203" from="-617654357#1" to="29251749#0" /><trip id="car_309" type="car" depart="42204" from="-29251749#0" to="617654357#1" /><trip id="car_310" type="car" depart="42209" from="-617654357#1" to="-1232571604" /><trip id="car_311" type="car" depart="42227" from="-29251749#0" to="617654357#1" /><trip id="car_312" type="car" depart="42230" from="-617654357#1" to="29251749#0" /><trip id="car_313" type="car" depart="42264" from="-29251749#0" to="617654357#1" /><trip id="bus_314" type="bus" depart="42270" from="-29251749#0" to="-4922743#4" /><trip id="car_315" type="car" depart="42273" from="237386421" to="617654357#1" /><trip id="car_316" type="car" depart="42280" from="4922743#4" to="617654357#1" /><trip id="car_317" type="car" depart="42326" from="4922743#4" to="29251749#0" /><trip id="car_318" type="car" depart="42368" from="-617654357#1" to="29251749#0" /><trip id="truck_319" type="truck" depart="42369" from="237386421" to="29251749#0" /><trip id="car_320" type="car" depart="42454" from="237386421" to="617654357#1" /><trip id="car_321" type="car" depart="42542" from="-617654357#1" to="-4922743#4" /><trip id="car_322" type="car" depart="42554" from="-617654357#1" to="-4922743#4" /><trip id="car_323" type="car" depart="42558" from="-617654357#1" to="-1232571604" /><trip id="car_324" type="car" depart="42561" from="-617654357#1" to="-1232571604" /><trip id="car_325" type="car" depart="42574" from="4922743#4" to="617654357#1" /><trip id="car_326" type="car" depart="42582" from="-617654357#1" to="29251749#0" /><trip id="car_327" type="car" depart="42608" from="-617654357#1" to="-4922743#4" /><trip id="car_328" type="car" depart="42615" from="-617654357#1" to="-1232571604" /><trip id="car_329" type="car" depart="42615" from="-617654357#1" to="29251749#0" /><trip id="car_330" type="car" depart="42620" from="-617654357#1" to="29251749#0" /><trip id="car_331" type="car" depart="42645" from="-617654357#1" to="29251749#0" /><trip id="car_332" type="car" depart="42646" from="-617654357#1" to="-4922743#4" /><trip id="car_333" type="car" depart="42650" from="-617654357#1" to="29251749#0" /><trip id="car_334" type="car" depart="42657" from="4922743#4" to="29251749#0" /><trip id="car_335" type="car" depart="42675" from="-617654357#1" to="-1232571604" /><trip id="car_336" type="car" depart="42679" from="-617654357#1" to="29251749#0" /><trip id="car_337" type="car" depart="42686" from="237386421" to="617654357#1" /><trip id="car_338" type="car" depart="42696" from="-617654357#1" to="-1232571604" /><trip id="car_339" type="car" depart="42717" from="-617654357#1" to="-4922743#4" /><trip id="bus_340" type="bus" depart="42723" from="-617654357#1" to="29251749#0" /><trip id="car_341" type="car" depart="42741" from="4922743#4" to="617654357#1" /><trip id="car_342" type="car" depart="42742" from="-617654357#1" to="29251749#0" /><trip id="car_343" type="car" depart="42746" from="237386421" to="29251749#0" /><trip id="car_344" type="car" depart="42788" from="237386421" to="29251749#0" /><trip id="car_345" type="car" depart="42795" from="237386421" to="29251749#0" /><trip id="car_346" type="car" depart="42829" from="-29251749#0" to="-4922743#4" /><trip id="truck_347" type="truck" depart="42891" from="237386421" to="29251749#0" /><trip id="car_348" type="car" depart="42936" from="4922743#4" to="29251749#0" /><trip id="car_349" type="car" depart="42938" from="-29251749#0" to="617654357#1" /><trip id="car_350" type="car" depart="42950" from="-617654357#1" to="29251749#0" /><trip id="car_351" type="car" depart="42966" from="-29251749#0" to="-4922743#4" /><trip id="car_352" type="car" depart="43036" from="237386421" to="29251749#0" /><trip id="car_353" type="car" depart="43063" from="-29251749#0" to="-4922743#4" /><trip id="car_354" type="car" depart="43080" from="-29251749#0" to="-1232571604" /><trip id="bus_355" type="bus" depart="43085" from="4922743#4" to="29251749#0" /><trip id="car_356" type="car" depart="43092" from="-29251749#0" to="-1232571604" /><trip id="car_357" type="car" depart="43092" from="-29251749#0" to="617654357#1" /><trip id="car_358" type="car" depart="43094" from="237386421" to="29251749#0" /><trip id="car_359" type="car" depart="43102" from="-29251749#0" to="-4922743#4" /><trip id="car_360" type="car" depart="43106" from="-29251749#0" to="-4922743#4" /><trip id="car_361" type="car" depart="43141" from="4922743#4" to="29251749#0" /><trip id="car_362" type="car" depart="43154" from="-29251749#0" to="-4922743#4" /><trip id="car_363" type="car" depart="43156" from="-29251749#0" to="617654357#1" /><trip id="car_364" type="car" depart="43290" from