<?xml version="1.0" encoding="UTF-8"?>

<!-- generated on 2025-05-18 04:44:32 by Eclipse SUMO duarouter Version 1.21.0
<duarouterConfiguration xmlns:xsi="http://www.w3.org/2001/XMLSchema-instance" xsi:noNamespaceSchemaLocation="http://sumo.dlr.de/xsd/duarouterConfiguration.xsd">

    <input>
        <net-file value="smaller.net.xml"/>
        <additional-files value="vtypes-1.add.xml"/>
        <route-files value="v5_trips.trips.xml"/>
    </input>

    <output>
        <output-file value="v5_dir_routes.rou.xml"/>
    </output>

</duarouterConfiguration>
-->

<routes xmlns:xsi="http://www.w3.org/2001/XMLSchema-instance" xsi:noNamespaceSchemaLocation="http://sumo.dlr.de/xsd/routes_file.xsd">
    <vType id="car" length="5.00" maxSpeed="55.60" vClass="passenger" accel="2.6" decel="4.5"/>
    <vehicle id="car_1000000000" type="car" depart="23700.00">
        <route edges="4922743#4 29251749#0"/>
    </vehicle>
    <vType id="motorcycle" length="2.10" maxSpeed="16.67" vClass="motorcycle" accel="2.6" decel="4.5"/>
    <vehicle id="motorcycle_1000000001" type="motorcycle" depart="23702.00">
        <route edges="-617654357#1 -617654357#0 -4922743#4"/>
    </vehicle>
    <vehicle id="car_1000000002" type="car" depart="23719.00">
        <route edges="237386421 617654357#0 617654357#1"/>
    </vehicle>
    <vehicle id="motorcycle_1000000003" type="motorcycle" depart="23728.00">
        <route edges="4922743#4 29251749#0"/>
    </vehicle>
    <vehicle id="car_1000000004" type="car" depart="23729.00">
        <route edges="-617654357#1 -617654357#0 -1232571604"/>
    </vehicle>
    <vehicle id="motorcycle_1000000005" type="motorcycle" depart="23735.00">
        <route edges="4922743#4 617654357#0 617654357#1"/>
    </vehicle>
    <vehicle id="motorcycle_1000000007" type="motorcycle" depart="23777.00">
        <route edges="237386421 -4922743#4"/>
    </vehicle>
    <vehicle id="car_1000000008" type="car" depart="23783.00">
        <route edges="-617654357#1 -617654357#0 -1232571604"/>
    </vehicle>
    <vehicle id="car_1000000009" type="car" depart="23793.00">
        <route edges="4922743#4 617654357#0 617654357#1"/>
    </vehicle>
    <vehicle id="car_1000000010" type="car" depart="23796.00">
        <route edges="237386421 617654357#0 617654357#1"/>
    </vehicle>
    <vehicle id="motorcycle_1000000011" type="motorcycle" depart="23808.00">
        <route edges="237386421 617654357#0 617654357#1"/>
    </vehicle>
    <vehicle id="car_1000000012" type="car" depart="23811.00">
        <route edges="-617654357#1 -617654357#0 -4922743#4"/>
    </vehicle>
    <vehicle id="car_1000000013" type="car" depart="23811.00">
        <route edges="-617654357#1 -617654357#0 29251749#0"/>
    </vehicle>
    <vType id="bus" length="12.00" maxSpeed="27.78" vClass="bus" accel="2.6" decel="4.5"/>
    <vehicle id="bus_1000000017" type="bus" depart="23859.00">
        <route edges="-617654357#1 -617654357#0 29251749#0"/>
    </vehicle>
    <vehicle id="bus_1000000018" type="bus" depart="23859.00">
        <route edges="4922743#4 29251749#0"/>
    </vehicle>
    <vehicle id="motorcycle_1000000019" type="motorcycle" depart="23860.00">
        <route edges="-617654357#1 -617654357#0 -1232571604"/>
    </vehicle>
    <vehicle id="motorcycle_1000000021" type="motorcycle" depart="23891.00">
        <route edges="4922743#4 29251749#0"/>
    </vehicle>
    <vehicle id="car_1000000022" type="car" depart="23899.00">
        <route edges="4922743#4 29251749#0"/>
    </vehicle>
    <vehicle id="car_1000000024" type="car" depart="23917.00">
        <route edges="237386421 29251749#0"/>
    </vehicle>
    <vehicle id="car_1000000026" type="car" depart="23928.00">
        <route edges="237386421 -4922743#4"/>
    </vehicle>
    <vehicle id="motorcycle_1000000028" type="motorcycle" depart="23933.00">
        <route edges="-29251749#0 -4922743#4"/>
    </vehicle>
    <vehicle id="car_1000000029" type="car" depart="23945.00">
        <route edges="4922743#4 617654357#0 617654357#1"/>
    </vehicle>
    <vehicle id="motorcycle_1000000030" type="motorcycle" depart="23945.00">
        <route edges="4922743#4 29251749#0"/>
    </vehicle>
    <vType id="truck" length="7.10" maxSpeed="36.11" vClass="truck" accel="2.6" decel="4.5"/>
    <vehicle id="truck_1000000031" type="truck" depart="23945.00">
        <route edges="4922743#4 -1232571604"/>
    </vehicle>
    <vehicle id="motorcycle_1000000032" type="motorcycle" depart="23948.00">
        <route edges="-29251749#0 -4922743#4"/>
    </vehicle>
    <vehicle id="motorcycle_1000000033" type="motorcycle" depart="23949.00">
        <route edges="237386421 617654357#0 617654357#1"/>
    </vehicle>
    <vehicle id="car_1000000034" type="car" depart="23971.00">
        <route edges="-617654357#1 -617654357#0 -4922743#4"/>
    </vehicle>
    <vehicle id="motorcycle_1000000035" type="motorcycle" depart="23971.00">
        <route edges="-617654357#1 -617654357#0 -1232571604"/>
    </vehicle>
    <vehicle id="car_1000000036" type="car" depart="23980.00">
        <route edges="237386421 617654357#0 617654357#1"/>
    </vehicle>
    <vehicle id="truck_1000000038" type="truck" depart="23983.00">
        <route edges="4922743#4 29251749#0"/>
    </vehicle>
    <vehicle id="bus_1000000039" type="bus" depart="23992.00">
        <route edges="-617654357#1 -617654357#0 29251749#0"/>
    </vehicle>
    <vehicle id="car_1000000042" type="car" depart="24052.00">
        <route edges="4922743#4 617654357#0 617654357#1"/>
    </vehicle>
    <vehicle id="car_1000000044" type="car" depart="24066.00">
        <route edges="4922743#4 29251749#0"/>
    </vehicle>
    <vehicle id="bus_1000000046" type="bus" depart="24076.00">
        <route edges="4922743#4 29251749#0"/>
    </vehicle>
    <vehicle id="motorcycle_1000000049" type="motorcycle" depart="24081.00">
        <route edges="-617654357#1 -617654357#0 -1232571604"/>
    </vehicle>
    <vehicle id="motorcycle_1000000052" type="motorcycle" depart="24090.00">
        <route edges="-617654357#1 -617654357#0 29251749#0"/>
    </vehicle>
    <vehicle id="car_1000000055" type="car" depart="24110.00">
        <route edges="-617654357#1 -617654357#0 29251749#0"/>
    </vehicle>
    <vehicle id="motorcycle_1000000056" type="motorcycle" depart="24111.00">
        <route edges="4922743#4 29251749#0"/>
    </vehicle>
    <vehicle id="car_1000000058" type="car" depart="24121.00">
        <route edges="4922743#4 29251749#0"/>
    </vehicle>
    <vehicle id="car_1000000059" type="car" depart="24122.00">
        <route edges="4922743#4 617654357#0 617654357#1"/>
    </vehicle>
    <vehicle id="car_1000000060" type="car" depart="24125.00">
        <route edges="-617654357#1 -617654357#0 -4922743#4"/>
    </vehicle>
    <vehicle id="bus_1000000061" type="bus" depart="24127.00">
        <route edges="4922743#4 29251749#0"/>
    </vehicle>
    <vehicle id="motorcycle_1000000062" type="motorcycle" depart="24130.00">
        <route edges="4922743#4 29251749#0"/>
    </vehicle>
    <vehicle id="motorcycle_1000000063" type="motorcycle" depart="24131.00">
        <route edges="237386421 -4922743#4"/>
    </vehicle>
    <vehicle id="motorcycle_1000000064" type="motorcycle" depart="24142.00">
        <route edges="-29251749#0 -4922743#4"/>
    </vehicle>
    <vehicle id="motorcycle_1000000065" type="motorcycle" depart="24168.00">
        <route edges="237386421 617654357#0 617654357#1"/>
    </vehicle>
    <vehicle id="car_1000000067" type="car" depart="24215.00">
        <route edges="4922743#4 29251749#0"/>
    </vehicle>
    <vehicle id="car_1000000068" type="car" depart="24224.00">
        <route edges="4922743#4 617654357#0 617654357#1"/>
    </vehicle>
    <vehicle id="motorcycle_1000000069" type="motorcycle" depart="24225.00">
        <route edges="-617654357#1 -617654357#0 -1232571604"/>
    </vehicle>
    <vehicle id="motorcycle_1000000071" type="motorcycle" depart="24238.00">
        <route edges="4922743#4 29251749#0"/>
    </vehicle>
    <vehicle id="bus_1000000072" type="bus" depart="24248.00">
        <route edges="-617654357#1 -617654357#0 29251749#0"/>
    </vehicle>
    <vehicle id="car_1000000073" type="car" depart="24249.00">
        <route edges="-29251749#0 -4922743#4"/>
    </vehicle>
    <vehicle id="car_1000000074" type="car" depart="24252.00">
        <route edges="-617654357#1 -617654357#0 -4922743#4"/>
    </vehicle>
    <vehicle id="motorcycle_1000000075" type="motorcycle" depart="24255.00">
        <route edges="4922743#4 -1232571604"/>
    </vehicle>
    <vehicle id="motorcycle_1000000080" type="motorcycle" depart="24276.00">
        <route edges="-617654357#1 -617654357#0 -4922743#4"/>
    </vehicle>
    <vehicle id="motorcycle_1000000082" type="motorcycle" depart="24307.00">
        <route edges="237386421 29251749#0"/>
    </vehicle>
    <vehicle id="car_1000000083" type="car" depart="24311.00">
        <route edges="-617654357#1 -617654357#0 -4922743#4"/>
    </vehicle>
    <vehicle id="car_1000000085" type="car" depart="24315.00">
        <route edges="4922743#4 29251749#0"/>
    </vehicle>
    <vehicle id="car_1000000086" type="car" depart="24317.00">
        <route edges="4922743#4 617654357#0 617654357#1"/>
    </vehicle>
    <vehicle id="bus_1000000091" type="bus" depart="24349.00">
        <route edges="237386421 -4922743#4"/>
    </vehicle>
    <vehicle id="car_1000000093" type="car" depart="24361.00">
        <route edges="237386421 -4922743#4"/>
    </vehicle>
    <vehicle id="car_1000000094" type="car" depart="24363.00">
        <route edges="-617654357#1 -617654357#0 29251749#0"/>
    </vehicle>
    <vehicle id="bus_1000000095" type="bus" depart="24400.00">
        <route edges="-617654357#1 -617654357#0 -4922743#4"/>
    </vehicle>
    <vehicle id="car_1000000096" type="car" depart="24402.00">
        <route edges="4922743#4 29251749#0"/>
    </vehicle>
    <vehicle id="motorcycle_1000000099" type="motorcycle" depart="24435.00">
        <route edges="237386421 29251749#0"/>
    </vehicle>
    <vehicle id="car_1000000101" type="car" depart="24442.00">
        <route edges="-617654357#1 -617654357#0 -1232571604"/>
    </vehicle>
    <vehicle id="bus_1000000102" type="bus" depart="24448.00">
        <route edges="4922743#4 29251749#0"/>
    </vehicle>
    <vehicle id="motorcycle_1000000103" type="motorcycle" depart="24455.00">
        <route edges="-29251749#0 617654357#0 617654357#1"/>
    </vehicle>
    <vehicle id="motorcycle_1000000104" type="motorcycle" depart="24464.00">
        <route edges="4922743#4 29251749#0"/>
    </vehicle>
    <vehicle id="car_1000000105" type="car" depart="24466.00">
        <route edges="-617654357#1 -617654357#0 -4922743#4"/>
    </vehicle>
    <vehicle id="car_1000000106" type="car" depart="24468.00">
        <route edges="4922743#4 617654357#0 617654357#1"/>
    </vehicle>
    <vehicle id="bus_1000000108" type="bus" depart="24483.00">
        <route edges="-617654357#1 -617654357#0 29251749#0"/>
    </vehicle>
    <vehicle id="motorcycle_1000000109" type="motorcycle" depart="24511.00">
        <route edges="4922743#4 617654357#0 617654357#1"/>
    </vehicle>
    <vehicle id="car_1000000110" type="car" depart="24517.00">
        <route edges="4922743#4 29251749#0"/>
    </vehicle>
    <vehicle id="car_1000000111" type="car" depart="24519.00">
        <route edges="237386421 617654357#0 617654357#1"/>
    </vehicle>
    <vehicle id="car_1000000112" type="car" depart="24527.00">
        <route edges="-617654357#1 -617654357#0 -4922743#4"/>
    </vehicle>
    <vehicle id="motorcycle_1000000113" type="motorcycle" depart="24530.00">
        <route edges="237386421 -4922743#4"/>
    </vehicle>
    <vehicle id="motorcycle_1000000115" type="motorcycle" depart="24557.00">
        <route edges="-29251749#0 -4922743#4"/>
    </vehicle>
    <vehicle id="motorcycle_1000000116" type="motorcycle" depart="24558.00">
        <route edges="4922743#4 -1232571604"/>
    </vehicle>
    <vehicle id="bus_1000000117" type="bus" depart="24567.00">
        <route edges="4922743#4 29251749#0"/>
    </vehicle>
    <vehicle id="bus_1000000118" type="bus" depart="24571.00">
        <route edges="-617654357#1 -617654357#0 29251749#0"/>
    </vehicle>
    <vehicle id="motorcycle_1000000119" type="motorcycle" depart="24572.00">
        <route edges="4922743#4 617654357#0 617654357#1"/>
    </vehicle>
    <vehicle id="motorcycle_1000000120" type="motorcycle" depart="24573.00">
        <route edges="4922743#4 -1232571604"/>
    </vehicle>
    <vehicle id="car_1000000121" type="car" depart="24577.00">
        <route edges="-617654357#1 -617654357#0 -1232571604"/>
    </vehicle>
    <vehicle id="motorcycle_1000000122" type="motorcycle" depart="24589.00">
        <route edges="-617654357#1 -617654357#0 29251749#0"/>
    </vehicle>
    <vehicle id="motorcycle_1000000125" type="motorcycle" depart="24592.00">
        <route edges="237386421 -4922743#4"/>
    </vehicle>
    <vehicle id="car_1000000126" type="car" depart="24610.00">
        <route edges="4922743#4 29251749#0"/>
    </vehicle>
    <vehicle id="motorcycle_1000000129" type="motorcycle" depart="24627.00">
        <route edges="-617654357#1 -617654357#0 -4922743#4"/>
    </vehicle>
    <vehicle id="motorcycle_1000000130" type="motorcycle" depart="24630.00">
        <route edges="4922743#4 29251749#0"/>
    </vehicle>
    <vehicle id="bus_1000000131" type="bus" depart="24641.00">
        <route edges="4922743#4 -1232571604"/>
    </vehicle>
    <vehicle id="motorcycle_1000000134" type="motorcycle" depart="24685.00">
        <route edges="4922743#4 617654357#0 617654357#1"/>
    </vehicle>
    <vehicle id="motorcycle_1000000135" type="motorcycle" depart="24692.00">
        <route edges="237386421 29251749#0"/>
    </vehicle>
    <vehicle id="motorcycle_1000000136" type="motorcycle" depart="24695.00">
        <route edges="4922743#4 29251749#0"/>
    </vehicle>
    <vehicle id="motorcycle_1000000137" type="motorcycle" depart="24697.00">
        <route edges="-617654357#1 -617654357#0 29251749#0"/>
    </vehicle>
    <vehicle id="car_1000000138" type="car" depart="24729.00">
        <route edges="-617654357#1 -617654357#0 -4922743#4"/>
    </vehicle>
    <vehicle id="motorcycle_1000000139" type="motorcycle" depart="24730.00">
        <route edges="-617654357#1 -617654357#0 -1232571604"/>
    </vehicle>
    <vehicle id="bus_1000000140" type="bus" depart="24731.00">
        <route edges="4922743#4 29251749#0"/>
    </vehicle>
    <vehicle id="car_1000000141" type="car" depart="24734.00">
        <route edges="4922743#4 -1232571604"/>
    </vehicle>
    <vehicle id="car_1000000142" type="car" depart="24734.00">
        <route edges="4922743#4 29251749#0"/>
    </vehicle>
    <vehicle id="car_1000000143" type="car" depart="24753.00">
        <route edges="4922743#4 29251749#0"/>
    </vehicle>
    <vehicle id="car_1000000145" type="car" depart="24758.00">
        <route edges="4922743#4 617654357#0 617654357#1"/>
    </vehicle>
    <vehicle id="motorcycle_1000000146" type="motorcycle" depart="24764.00">
        <route edges="4922743#4 29251749#0"/>
    </vehicle>
    <vehicle id="motorcycle_1000000147" type="motorcycle" depart="24770.00">
        <route edges="4922743#4 617654357#0 617654357#1"/>
    </vehicle>
    <vehicle id="motorcycle_1000000150" type="motorcycle" depart="24799.00">
        <route edges="-29251749#0 -4922743#4"/>
    </vehicle>
    <vehicle id="car_1000000157" type="car" depart="24840.00">
        <route edges="-617654357#1 -617654357#0 -1232571604"/>
    </vehicle>
    <vehicle id="motorcycle_1000000158" type="motorcycle" depart="24876.00">
        <route edges="-617654357#1 -617654357#0 29251749#0"/>
    </vehicle>
    <vehicle id="motorcycle_1000000159" type="motorcycle" depart="24878.00">
        <route edges="-617654357#1 -617654357#0 -4922743#4"/>
    </vehicle>
    <vehicle id="car_1000000160" type="car" depart="24884.00">
        <route edges="4922743#4 29251749#0"/>
    </vehicle>
    <vehicle id="motorcycle_1000000161" type="motorcycle" depart="24885.00">
        <route edges="-617654357#1 -617654357#0 -1232571604"/>
    </vehicle>
    <vehicle id="motorcycle_1000000162" type="motorcycle" depart="24916.00">
        <route edges="4922743#4 29251749#0"/>
    </vehicle>
    <vehicle id="truck_1000000163" type="truck" depart="24939.00">
        <route edges="237386421 -4922743#4"/>
    </vehicle>
    <vehicle id="motorcycle_1000000164" type="motorcycle" depart="24941.00">
        <route edges="-617654357#1 -617654357#0 -1232571604"/>
    </vehicle>
    <vehicle id="motorcycle_1000000165" type="motorcycle" depart="24941.00">
        <route edges="-617654357#1 -617654357#0 29251749#0"/>
    </vehicle>
    <vehicle id="bus_1000000166" type="bus" depart="24942.00">
        <route edges="4922743#4 29251749#0"/>
    </vehicle>
    <vehicle id="car_1000000167" type="car" depart="24942.00">
        <route edges="4922743#4 29251749#0"/>
    </vehicle>
    <vehicle id="motorcycle_1000000168" type="motorcycle" depart="24943.00">
        <route edges="4922743#4 617654357#0 617654357#1"/>
    </vehicle>
    <vehicle id="motorcycle_1000000169" type="motorcycle" depart="24947.00">
        <route edges="-617654357#1 -617654357#0 -4922743#4"/>
    </vehicle>
    <vehicle id="motorcycle_1000000171" type="motorcycle" depart="24950.00">
        <route edges="237386421 617654357#0 617654357#1"/>
    </vehicle>
    <vehicle id="car_1000000174" type="car" depart="24969.00">
        <route edges="237386421 617654357#0 617654357#1"/>
    </vehicle>
    <vehicle id="motorcycle_1000000176" type="motorcycle" depart="24987.00">
        <route edges="4922743#4 29251749#0"/>
    </vehicle>
    <vehicle id="car_1000000178" type="car" depart="24995.00">
        <route edges="-617654357#1 -617654357#0 -1232571604"/>
    </vehicle>
    <vehicle id="motorcycle_1000000182" type="motorcycle" depart="25005.00">
        <route edges="-29251749#0 -4922743#4"/>
    </vehicle>
    <vehicle id="car_1000000185" type="car" depart="25013.00">
        <route edges="4922743#4 617654357#0 617654357#1"/>
    </vehicle>
    <vehicle id="motorcycle_1000000186" type="motorcycle" depart="25021.00">
        <route edges="4922743#4 -1232571604"/>
    </vehicle>
    <vehicle id="car_1000000187" type="car" depart="25023.00">
        <route edges="-617654357#1 -617654357#0 -1232571604"/>
    </vehicle>
    <vehicle id="motorcycle_1000000188" type="motorcycle" depart="25032.00">
        <route edges="-617654357#1 -617654357#0 29251749#0"/>
    </vehicle>
    <vehicle id="car_1000000189" type="car" depart="25036.00">
        <route edges="4922743#4 29251749#0"/>
    </vehicle>
    <vehicle id="car_1000000191" type="car" depart="25057.00">
        <route edges="4922743#4 -1232571604"/>
    </vehicle>
    <vehicle id="motorcycle_1000000193" type="motorcycle" depart="25073.00">
        <route edges="237386421 617654357#0 617654357#1"/>
    </vehicle>
    <vehicle id="car_1000000194" type="car" depart="25074.00">
        <route edges="4922743#4 617654357#0 617654357#1"/>
    </vehicle>
    <vehicle id="motorcycle_1000000196" type="motorcycle" depart="25090.00">
        <route edges="4922743#4 29251749#0"/>
    </vehicle>
    <vehicle id="car_1000000197" type="car" depart="25097.00">
        <route edges="237386421 617654357#0 617654357#1"/>
    </vehicle>
    <vehicle id="motorcycle_1000000198" type="motorcycle" depart="25100.00">
        <route edges="4922743#4 617654357#0 617654357#1"/>
    </vehicle>
    <vehicle id="car_1000000199" type="car" depart="25102.00">
        <route edges="237386421 29251749#0"/>
    </vehicle>
    <vehicle id="motorcycle_1000000201" type="motorcycle" depart="25111.00">
        <route edges="-617654357#1 -617654357#0 -1232571604"/>
    </vehicle>
    <vehicle id="bus_1000000202" type="bus" depart="25134.00">
        <route edges="-617654357#1 -617654357#0 29251749#0"/>
    </vehicle>
    <vehicle id="motorcycle_1000000203" type="motorcycle" depart="25134.00">
        <route edges="4922743#4 29251749#0"/>
    </vehicle>
    <vehicle id="motorcycle_1000000204" type="motorcycle" depart="25135.00">
        <route edges="-29251749#0 617654357#0 617654357#1"/>
    </vehicle>
    <vehicle id="car_1000000205" type="car" depart="25139.00">
        <route edges="-617654357#1 -617654357#0 -1232571604"/>
    </vehicle>
    <vehicle id="motorcycle_1000000207" type="motorcycle" depart="25173.00">
        <route edges="-617654357#1 -617654357#0 -4922743#4"/>
    </vehicle>
    <vehicle id="car_1000000209" type="car" depart="25186.00">
        <route edges="237386421 617654357#0 617654357#1"/>
    </vehicle>
    <vehicle id="motorcycle_1000000210" type="motorcycle" depart="25191.00">
        <route edges="4922743#4 -1232571604"/>
    </vehicle>
    <vehicle id="car_1000000211" type="car" depart="25193.00">
        <route edges="4922743#4 29251749#0"/>
    </vehicle>
    <vehicle id="car_1000000212" type="car" depart="25199.00">
        <route edges="-617654357#1 -617654357#0 -4922743#4"/>
    </vehicle>
    <vehicle id="car_1000000213" type="car" depart="25202.00">
        <route edges="-617654357#1 -617654357#0 29251749#0"/>
    </vehicle>
    <vehicle id="car_1000000214" type="car" depart="25202.00">
        <route edges="4922743#4 617654357#0 617654357#1"/>
    </vehicle>
    <vehicle id="motorcycle_1000000215" type="motorcycle" depart="25202.00">
        <route edges="237386421 617654357#0 617654357#1"/>
    </vehicle>
    <vehicle id="motorcycle_1000000216" type="motorcycle" depart="25205.00">
        <route edges="4922743#4 29251749#0"/>
    </vehicle>
    <vehicle id="car_1000000217" type="car" depart="25206.00">
        <route edges="4922743#4 -1232571604"/>
    </vehicle>
    <vehicle id="motorcycle_1000000220" type="motorcycle" depart="25246.00">
        <route edges="-617654357#1 -617654357#0 29251749#0"/>
    </vehicle>
    <vehicle id="car_1000000222" type="car" depart="25250.00">
        <route edges="237386421 29251749#0"/>
    </vehicle>
    <vehicle id="car_1000000224" type="car" depart="25260.00">
        <route edges="-617654357#1 -617654357#0 -1232571604"/>
    </vehicle>
    <vehicle id="motorcycle_1000000228" type="motorcycle" depart="25286.00">
        <route edges="237386421 -4922743#4"/>
    </vehicle>
    <vehicle id="motorcycle_1000000230" type="motorcycle" depart="25290.00">
        <route edges="-617654357#1 -617654357#0 29251749#0"/>
    </vehicle>
    <vehicle id="car_1000000231" type="car" depart="25307.00">
        <route edges="-617654357#1 -617654357#0 29251749#0"/>
    </vehicle>
    <vehicle id="motorcycle_1000000232" type="motorcycle" depart="25309.00">
        <route edges="237386421 -4922743#4"/>
    </vehicle>
    <vehicle id="car_1000000233" type="car" depart="25318.00">
        <route edges="-617654357#1 -617654357#0 -4922743#4"/>
    </vehicle>
    <vehicle id="motorcycle_1000000234" type="motorcycle" depart="25335.00">
        <route edges="4922743#4 29251749#0"/>
    </vehicle>
    <vehicle id="car_1000000235" type="car" depart="25342.00">
        <route edges="4922743#4 29251749#0"/>
    </vehicle>
    <vehicle id="car_1000000236" type="car" depart="25364.00">
        <route edges="237386421 29251749#0"/>
    </vehicle>
    <vehicle id="car_1000000238" type="car" depart="25369.00">
        <route edges="4922743#4 -1232571604"/>
    </vehicle>
    <vehicle id="motorcycle_1000000239" type="motorcycle" depart="25379.00">
        <route edges="-29251749#0 -1232571604"/>
    </vehicle>
    <vehicle id="bus_1000000240" type="bus" depart="25383.00">
        <route edges="-617654357#1 -617654357#0 29251749#0"/>
    </vehicle>
    <vehicle id="motorcycle_1000000241" type="motorcycle" depart="25393.00">
        <route edges="237386421 -4922743#4"/>
    </vehicle>
    <vehicle id="car_1000000242" type="car" depart="25409.00">
        <route edges="237386421 29251749#0"/>
    </vehicle>
    <vehicle id="motorcycle_1000000243" type="motorcycle" depart="25416.00">
        <route edges="237386421 617654357#0 617654357#1"/>
    </vehicle>
    <vehicle id="bus_1000000245" type="bus" depart="25427.00">
        <route edges="4922743#4 29251749#0"/>
    </vehicle>
    <vehicle id="car_1000000246" type="car" depart="25432.00">
        <route edges="237386421 617654357#0 617654357#1"/>
    </vehicle>
    <vehicle id="car_1000000247" type="car" depart="25439.00">
        <route edges="237386421 -4922743#4"/>
    </vehicle>
    <vehicle id="motorcycle_1000000248" type="motorcycle" depart="25439.00">
        <route edges="4922743#4 29251749#0"/>
    </vehicle>
    <vehicle id="motorcycle_1000000251" type="motorcycle" depart="25456.00">
        <route edges="4922743#4 -1232571604"/>
    </vehicle>
    <vehicle id="car_1000000252" type="car" depart="25481.00">
        <route edges="4922743#4 -1232571604"/>
    </vehicle>
    <vehicle id="car_1000000253" type="car" depart="25482.00">
        <route edges="4922743#4 617654357#0 617654357#1"/>
    </vehicle>
    <vehicle id="motorcycle_1000000254" type="motorcycle" depart="25508.00">
        <route edges="-617654357#1 -617654357#0 -1232571604"/>
    </vehicle>
    <vehicle id="motorcycle_1000000255" type="motorcycle" depart="25511.00">
        <route edges="4922743#4 29251749#0"/>
    </vehicle>
    <vehicle id="car_1000000260" type="car" depart="25532.00">
        <route edges="4922743#4 29251749#0"/>
    </vehicle>
    <vehicle id="motorcycle_1000000261" type="motorcycle" depart="25532.00">
        <route edges="4922743#4 617654357#0 617654357#1"/>
    </vehicle>
    <vehicle id="car_1000000262" type="car" depart="25534.00">
        <route edges="-617654357#1 -617654357#0 -1232571604"/>
    </vehicle>
    <vehicle id="car_1000000264" type="car" depart="25554.00">
        <route edges="237386421 617654357#0 617654357#1"/>
    </vehicle>
    <vehicle id="bus_1000000265" type="bus" depart="25561.00">
        <route edges="4922743#4 29251749#0"/>
    </vehicle>
    <vehicle id="motorcycle_1000000266" type="motorcycle" depart="25569.00">
        <route edges="-29251749#0 -4922743#4"/>
    </vehicle>
    <vehicle id="motorcycle_1000000267" type="motorcycle" depart="25589.00">
        <route edges="237386421 -4922743#4"/>
    </vehicle>
    <vehicle id="car_1000000268" type="car" depart="25593.00">
        <route edges="-617654357#1 -617654357#0 29251749#0"/>
    </vehicle>
    <vehicle id="car_1000000269" type="car" depart="25595.00">
        <route edges="-617654357#1 -617654357#0 -1232571604"/>
    </vehicle>
    <vehicle id="car_1000000270" type="car" depart="25596.00">
        <route edges="-617654357#1 -617654357#0 -4922743#4"/>
    </vehicle>
    <vehicle id="bus_1000000271" type="bus" depart="25603.00">
        <route edges="-29251749#0 617654357#0 617654357#1"/>
    </vehicle>
    <vehicle id="motorcycle_1000000272" type="motorcycle" depart="25638.00">
        <route edges="-617654357#1 -617654357#0 -4922743#4"/>
    </vehicle>
    <vehicle id="car_1000000273" type="car" depart="25647.00">
        <route edges="4922743#4 29251749#0"/>
    </vehicle>
    <vehicle id="car_1000000275" type="car" depart="25664.00">
        <route edges="-617654357#1 -617654357#0 -1232571604"/>
    </vehicle>
    <vehicle id="car_1000000276" type="car" depart="25665.00">
        <route edges="4922743#4 -1232571604"/>
    </vehicle>
    <vehicle id="motorcycle_1000000277" type="motorcycle" depart="25680.00">
        <route edges="4922743#4 29251749#0"/>
    </vehicle>
    <vehicle id="bus_1000000279" type="bus" depart="25729.00">
        <route edges="4922743#4 29251749#0"/>
    </vehicle>
    <vehicle id="motorcycle_1000000280" type="motorcycle" depart="25729.00">
        <route edges="4922743#4 617654357#0 617654357#1"/>
    </vehicle>
    <vehicle id="car_1000000281" type="car" depart="25730.00">
        <route edges="237386421 617654357#0 617654357#1"/>
    </vehicle>
    <vehicle id="car_1000000282" type="car" depart="25730.00">
        <route edges="4922743#4 29251749#0"/>
    </vehicle>
    <vehicle id="car_1000000283" type="car" depart="25740.00">
        <route edges="4922743#4 29251749#0"/>
    </vehicle>
    <vehicle id="motorcycle_1000000284" type="motorcycle" depart="25752.00">
        <route edges="-617654357#1 -617654357#0 29251749#0"/>
    </vehicle>
    <vehicle id="car_1000000285" type="car" depart="25762.00">
        <route edges="-617654357#1 -617654357#0 -1232571604"/>
    </vehicle>
    <vehicle id="motorcycle_1000000289" type="motorcycle" depart="25804.00">
        <route edges="-29251749#0 617654357#0 617654357#1"/>
    </vehicle>
    <vehicle id="car_1000000290" type="car" depart="25815.00">
        <route edges="-617654357#1 -617654357#0 -4922743#4"/>
    </vehicle>
    <vehicle id="bus_1000000291" type="bus" depart="25820.00">
        <route edges="-617654357#1 -617654357#0 29251749#0"/>
    </vehicle>
    <vehicle id="car_1000000292" type="car" depart="25823.00">
        <route edges="-29251749#0 -4922743#4"/>
    </vehicle>
    <vehicle id="car_1000000293" type="car" depart="25833.00">
        <route edges="4922743#4 29251749#0"/>
    </vehicle>
    <vehicle id="motorcycle_1000000294" type="motorcycle" depart="25838.00">
        <route edges="4922743#4 29251749#0"/>
    </vehicle>