<?xml version='1.0' encoding='utf-8'?>
<trips><trip id="car_1000000000" type="car" depart="23700" from="4922743#4" to="29251749#0" /><trip id="motorcycle_1000000001" type="motorcycle" depart="23702" from="-617654357#1" to="-4922743#4" /><trip id="car_1000000002" type="car" depart="23719" from="237386421" to="617654357#1" /><trip id="motorcycle_1000000003" type="motorcycle" depart="23728" from="4922743#4" to="29251749#0" /><trip id="car_1000000004" type="car" depart="23729" from="-617654357#1" to="-1232571604" /><trip id="motorcycle_1000000005" type="motorcycle" depart="23735" from="4922743#4" to="617654357#1" /><trip id="motorcycle_1000000007" type="motorcycle" depart="23777" from="237386421" to="-4922743#4" /><trip id="car_1000000008" type="car" depart="23783" from="-617654357#1" to="-1232571604" /><trip id="car_1000000009" type="car" depart="23793" from="4922743#4" to="617654357#1" /><trip id="car_1000000010" type="car" depart="23796" from="237386421" to="617654357#1" /><trip id="motorcycle_1000000011" type="motorcycle" depart="23808" from="237386421" to="617654357#1" /><trip id="car_1000000012" type="car" depart="23811" from="-617654357#1" to="-4922743#4" /><trip id="car_1000000013" type="car" depart="23811" from="-617654357#1" to="29251749#0" /><trip id="bus_1000000017" type="bus" depart="23859" from="-617654357#1" to="29251749#0" /><trip id="bus_1000000018" type="bus" depart="23859" from="4922743#4" to="29251749#0" /><trip id="motorcycle_1000000019" type="motorcycle" depart="23860" from="-617654357#1" to="-1232571604" /><trip id="motorcycle_1000000021" type="motorcycle" depart="23891" from="4922743#4" to="29251749#0" /><trip id="car_1000000022" type="car" depart="23899" from="4922743#4" to="29251749#0" /><trip id="car_1000000024" type="car" depart="23917" from="237386421" to="29251749#0" /><trip id="car_1000000026" type="car" depart="23928" from="237386421" to="-4922743#4" /><trip id="motorcycle_1000000028" type="motorcycle" depart="23933" from="-29251749#0" to="-4922743#4" /><trip id="car_1000000029" type="car" depart="23945" from="4922743#4" to="617654357#1" /><trip id="motorcycle_1000000030" type="motorcycle" depart="23945" from="4922743#4" to="29251749#0" /><trip id="truck_1000000031" type="truck" depart="23945" from="4922743#4" to="-1232571604" /><trip id="motorcycle_1000000032" type="motorcycle" depart="23948" from="-29251749#0" to="-4922743#4" /><trip id="motorcycle_1000000033" type="motorcycle" depart="23949" from="237386421" to="617654357#1" /><trip id="car_1000000034" type="car" depart="23971" from="-617654357#1" to="-4922743#4" /><trip id="motorcycle_1000000035" type="motorcycle" depart="23971" from="-617654357#1" to="-1232571604" /><trip id="car_1000000036" type="car" depart="23980" from="237386421" to="617654357#1" /><trip id="truck_1000000038" type="truck" depart="23983" from="4922743#4" to="29251749#0" /><trip id="bus_1000000039" type="bus" depart="23992" from="-617654357#1" to="29251749#0" /><trip id="car_1000000042" type="car" depart="24052" from="4922743#4" to="617654357#1" /><trip id="car_1000000044" type="car" depart="24066" from="4922743#4" to="29251749#0" /><trip id="bus_1000000046" type="bus" depart="24076" from="4922743#4" to="29251749#0" /><trip id="motorcycle_1000000049" type="motorcycle" depart="24081" from="-617654357#1" to="-1232571604" /><trip id="motorcycle_1000000052" type="motorcycle" depart="24090" from="-617654357#1" to="29251749#0" /><trip id="car_1000000055" type="car" depart="24110" from="-617654357#1" to="29251749#0" /><trip id="motorcycle_1000000056" type="motorcycle" depart="24111" from="4922743#4" to="29251749#0" /><trip id="car_1000000058" type="car" depart="24121" from="4922743#4" to="29251749#0" /><trip id="car_1000000059" type="car" depart="24122" from="4922743#4" to="617654357#1" /><trip id="car_1000000060" type="car" depart="24125" from="-617654357#1" to="-4922743#4" /><trip id="bus_1000000061" type="bus" depart="24127" from="4922743#4" to="29251749#0" /><trip id="motorcycle_1000000062" type="motorcycle" depart="24130" from="4922743#4" to="29251749#0" /><trip id="motorcycle_1000000063" type="motorcycle" depart="24131" from="237386421" to="-4922743#4" /><trip id="motorcycle_1000000064" type="motorcycle" depart="24142" from="-29251749#0" to="-4922743#4" /><trip id="motorcycle_1000000065" type="motorcycle" depart="24168" from="237386421" to="617654357#1" /><trip id="car_1000000067" type="car" depart="24215" from="4922743#4" to="29251749#0" /><trip id="car_1000000068" type="car" depart="24224" from="4922743#4" to="617654357#1" /><trip id="motorcycle_1000000069" type="motorcycle" depart="24225" from="-617654357#1" to="-1232571604" /><trip id="motorcycle_1000000071" type="motorcycle" depart="24238" from="4922743#4" to="29251749#0" /><trip id="bus_1000000072" type="bus" depart="24248" from="-617654357#1" to="29251749#0" /><trip id="car_1000000073" type="car" depart="24249" from="-29251749#0" to="-4922743#4" /><trip id="car_1000000074" type="car" depart="24252" from="-617654357#1" to="-4922743#4" /><trip id="motorcycle_1000000075" type="motorcycle" depart="24255" from="4922743#4" to="-1232571604" /><trip id="motorcycle_1000000080" type="motorcycle" depart="24276" from="-617654357#1" to="-4922743#4" /><trip id="motorcycle_1000000082" type="motorcycle" depart="24307" from="237386421" to="29251749#0" /><trip id="car_1000000083" type="car" depart="24311" from="-617654357#1" to="-4922743#4" /><trip id="car_1000000085" type="car" depart="24315" from="4922743#4" to="29251749#0" /><trip id="car_1000000086" type="car" depart="24317" from="4922743#4" to="617654357#1" /><trip id="bus_1000000091" type="bus" depart="24349" from="237386421" to="-4922743#4" /><trip id="car_1000000093" type="car" depart="24361" from="237386421" to="-4922743#4" /><trip id="car_1000000094" type="car" depart="24363" from="-617654357#1" to="29251749#0" /><trip id="bus_1000000095" type="bus" depart="24400" from="-617654357#1" to="-4922743#4" /><trip id="car_1000000096" type="car" depart="24402" from="4922743#4" to="29251749#0" /><trip id="motorcycle_1000000099" type="motorcycle" depart="24435" from="237386421" to="29251749#0" /><trip id="car_1000000101" type="car" depart="24442" from="-617654357#1" to="-1232571604" /><trip id="bus_1000000102" type="bus" depart="24448" from="4922743#4" to="29251749#0" /><trip id="motorcycle_1000000103" type="motorcycle" depart="24455" from="-29251749#0" to="617654357#1" /><trip id="motorcycle_1000000104" type="motorcycle" depart="24464" from="4922743#4" to="29251749#0" /><trip id="car_1000000105" type="car" depart="24466" from="-617654357#1" to="-4922743#4" /><trip id="car_1000000106" type="car" depart="24468" from="4922743#4" to="617654357#1" /><trip id="bus_1000000108" type="bus" depart="24483" from="-617654357#1" to="29251749#0" /><trip id="motorcycle_1000000109" type="motorcycle" depart="24511" from="4922743#4" to="617654357#1" /><trip id="car_1000000110" type="car" depart="24517" from="4922743#4" to="29251749#0" /><trip id="car_1000000111" type="car" depart="24519" from="237386421" to="617654357#1" /><trip id="car_1000000112" type="car" depart="24527" from="-617654357#1" to="-4922743#4" /><trip id="motorcycle_1000000113" type="motorcycle" depart="24530" from="237386421" to="-4922743#4" /><trip id="motorcycle_1000000115" type="motorcycle" depart="24557" from="-29251749#0" to="-4922743#4" /><trip id="motorcycle_1000000116" type="motorcycle" depart="24558" from="4922743#4" to="-1232571604" /><trip id="bus_1000000117" type="bus" depart="24567" from="4922743#4" to="29251749#0" /><trip id="bus_1000000118" type="bus" depart="24571" from="-617654357#1" to="29251749#0" /><trip id="motorcycle_1000000119" type="motorcycle" depart="24572" from="4922743#4" to="617654357#1" /><trip id="motorcycle_1000000120" type="motorcycle" depart="24573" from="4922743#4" to="-1232571604" /><trip id="car_1000000121" type="car" depart="24577" from="-617654357#1" to="-1232571604" /><trip id="motorcycle_1000000122" type="motorcycle" depart="24589" from="-617654357#1" to="29251749#0" /><trip id="motorcycle_1000000125" type="motorcycle" depart="24592" from="237386421" to="-4922743#4" /><trip id="car_1000000126" type="car" depart="24610" from="4922743#4" to="29251749#0" /><trip id="motorcycle_1000000129" type="motorcycle" depart="24627" from="-617654357#1" to="-4922743#4" /><trip id="motorcycle_1000000130" type="motorcycle" depart="24630" from="4922743#4" to="29251749#0" /><trip id="bus_1000000131" type="bus" depart="24641" from="4922743#4" to="-1232571604" /><trip id="motorcycle_1000000134" type="motorcycle" depart="24685" from="4922743#4" to="617654357#1" /><trip id="motorcycle_1000000135" type="motorcycle" depart="24692" from="237386421" to="29251749#0" /><trip id="motorcycle_1000000136" type="motorcycle" depart="24695" from="4922743#4" to="29251749#0" /><trip id="motorcycle_1000000137" type="motorcycle" depart="24697" from="-617654357#1" to="29251749#0" /><trip id="car_1000000138" type="car" depart="24729" from="-617654357#1" to="-4922743#4" /><trip id="motorcycle_1000000139" type="motorcycle" depart="24730" from="-617654357#1" to="-1232571604" /><trip id="bus_1000000140" type="bus" depart="24731" from="4922743#4" to="29251749#0" /><trip id="car_1000000141" type="car" depart="24734" from="4922743#4" to="-1232571604" /><trip id="car_1000000142" type="car" depart="24734" from="4922743#4" to="29251749#0" /><trip id="car_1000000143" type="car" depart="24753" from="4922743#4" to="29251749#0" /><trip id="car_1000000145" type="car" depart="24758" from="4922743#4" to="617654357#1" /><trip id="motorcycle_1000000146" type="motorcycle" depart="24764" from="4922743#4" to="29251749#0" /><trip id="motorcycle_1000000147" type="motorcycle" depart="24770" from="4922743#4" to="617654357#1" /><trip id="motorcycle_1000000150" type="motorcycle" depart="24799" from="-29251749#0" to="-4922743#4" /><trip id="car_1000000157" type="car" depart="24840" from="-617654357#1" to="-1232571604" /><trip id="motorcycle_1000000158" type="motorcycle" depart="24876" from="-617654357#1" to="29251749#0" /><trip id="motorcycle_1000000159" type="motorcycle" depart="24878" from="-617654357#1" to="-4922743#4" /><trip id="car_1000000160" type="car" depart="24884" from="4922743#4" to="29251749#0" /><trip id="motorcycle_1000000161" type="motorcycle" depart="24885" from="-617654357#1" to="-1232571604" /><trip id="motorcycle_1000000162" type="motorcycle" depart="24916" from="4922743#4" to="29251749#0" /><trip id="truck_1000000163" type="truck" depart="24939" from="237386421" to="-4922743#4" /><trip id="motorcycle_1000000164" type="motorcycle" depart="24941" from="-617654357#1" to="-1232571604" /><trip id="motorcycle_1000000165" type="motorcycle" depart="24941" from="-617654357#1" to="29251749#0" /><trip id="bus_1000000166" type="bus" depart="24942" from="4922743#4" to="29251749#0" /><trip id="car_1000000167" type="car" depart="24942" from="4922743#4" to="29251749#0" /><trip id="motorcycle_1000000168" type="motorcycle" depart="24943" from="4922743#4" to="617654357#1" /><trip id="motorcycle_1000000169" type="motorcycle" depart="24947" from="-617654357#1" to="-4922743#4" /><trip id="motorcycle_1000000171" type="motorcycle" depart="24950" from="237386421" to="617654357#1" /><trip id="car_1000000174" type="car" depart="24969" from="237386421" to="617654357#1" /><trip id="motorcycle_1000000176" type="motorcycle" depart="24987" from="4922743#4" to="29251749#0" /><trip id="car_1000000178" type="car" depart="24995" from="-617654357#1" to="-1232571604" /><trip id="motorcycle_1000000182" type="motorcycle" depart="25005" from="-29251749#0" to="-4922743#4" /><trip id="car_1000000185" type="car" depart="25013" from="4922743#4" to="617654357#1" /><trip id="motorcycle_1000000186" type="motorcycle" depart="25021" from="4922743#4" to="-1232571604" /><trip id="car_1000000187" type="car" depart="25023" from="-617654357#1" to="-1232571604" /><trip id="motorcycle_1000000188" type="motorcycle" depart="25032" from="-617654357#1" to="29251749#0" /><trip id="car_1000000189" type="car" depart="25036" from="4922743#4" to="29251749#0" /><trip id="car_1000000191" type="car" depart="25057" from="4922743#4" to="-1232571604" /><trip id="motorcycle_1000000193" type="motorcycle" depart="25073" from="237386421" to="617654357#1" /><trip id="car_1000000194" type="car" depart="25074" from="4922743#4" to="617654357#1" /><trip id="motorcycle_1000000196" type="motorcycle" depart="25090" from="4922743#4" to="29251749#0" /><trip id="car_1000000197" type="car" depart="25097" from="237386421" to="617654357#1" /><trip id="motorcycle_1000000198" type="motorcycle" depart="25100" from="4922743#4" to="617654357#1" /><trip id="car_1000000199" type="car" depart="25102" from="237386421" to="29251749#0" /><trip id="motorcycle_1000000201" type="motorcycle" depart="25111" from="-617654357#1" to="-1232571604" /><trip id="bus_1000000202" type="bus" depart="25134" from="-617654357#1" to="29251749#0" /><trip id="motorcycle_1000000203" type="motorcycle" depart="25134" from="4922743#4" to="29251749#0" /><trip id="motorcycle_1000000204" type="motorcycle" depart="25135" from="-29251749#0" to="617654357#1" /><trip id="car_1000000205" type="car" depart="25139" from="-617654357#1" to="-1232571604" /><trip id="motorcycle_1000000207" type="motorcycle" depart="25173" from="-617654357#1" to="-4922743#4" /><trip id="car_1000000209" type="car" depart="25186" from="237386421" to="617654357#1" /><trip id="motorcycle_1000000210" type="motorcycle" depart="25191" from="4922743#4" to="-1232571604" /><trip id="car_1000000211" type="car" depart="25193" from="4922743#4" to="29251749#0" /><trip id="car_1000000212" type="car" depart="25199" from="-617654357#1" to="-4922743#4" /><trip id="car_1000000213" type="car" depart="25202" from="-617654357#1" to="29251749#0" /><trip id="car_1000000214" type="car" depart="25202" from="4922743#4" to="617654357#1" /><trip id="motorcycle_1000000215" type="motorcycle" depart="25202" from="237386421" to="617654357#1" /><trip id="motorcycle_1000000216" type="motorcycle" depart="25205" from="4922743#4" to="29251749#0" /><trip id="car_1000000217" type="car" depart="25206" from="4922743#4" to="-1232571604" /><trip id="motorcycle_1000000220" type="motorcycle" depart="25246" from="-617654357#1" to="29251749#0" /><trip id="car_1000000222" type="car" depart="25250" from="237386421" to="29251749#0" /><trip id="car_1000000224" type="car" depart="25260" from="-617654357#1" to="-1232571604" /><trip id="motorcycle_1000000228" type="motorcycle" depart="25286" from="237386421" to="-4922743#4" /><trip id="motorcycle_1000000230" type="motorcycle" depart="25290" from="-617654357#1" to="29251749#0" /><trip id="car_1000000231" type="car" depart="25307" from="-617654357#1" to="29251749#0" /><trip id="motorcycle_1000000232" type="motorcycle" depart="25309" from="237386421" to="-4922743#4" /><trip id="car_1000000233" type="car" depart="25318" from="-617654357#1" to="-4922743#4" /><trip id="motorcycle_1000000234" type="motorcycle" depart="25335" from="4922743#4" to="29251749#0" /><trip id="car_1000000235" type="car" depart="25342" from="4922743#4" to="29251749#0" /><trip id="car_1000000236" type="car" depart="25364" from="237386421" to="29251749#0" /><trip id="car_1000000238" type="car" depart="25369" from="4922743#4" to="-1232571604" /><trip id="motorcycle_1000000239" type="motorcycle" depart="25379" from="-29251749#0" to="-1232571604" /><trip id="bus_1000000240" type="bus" depart="25383" from="-617654357#1" to="29251749#0" /><trip id="motorcycle_1000000241" type="motorcycle" depart="25393" from="237386421" to="-4922743#4" /><trip id="car_1000000242" type="car" depart="25409" from="237386421" to="29251749#0" /><trip id="motorcycle_1000000243" type="motorcycle" depart="25416" from="237386421" to="617654357#1" /><trip id="bus_1000000245" type="bus" depart="25427" from="4922743#4" to="29251749#0" /><trip id="car_1000000246" type="car" depart="25432" from="237386421" to="617654357#1" /><trip id="car_1000000247" type="car" depart="25439" from="237386421" to="-4922743#4" /><trip id="motorcycle_1000000248" type="motorcycle" depart="25439" from="4922743#4" to="29251749#0" /><trip id="motorcycle_1000000251" type="motorcycle" depart="25456" from="4922743#4" to="-1232571604" /><trip id="car_1000000252" type="car" depart="25481" from="4922743#4" to="-1232571604" /><trip id="car_1000000253" type="car" depart="25482" from="4922743#4" to="617654357#1" /><trip id="motorcycle_1000000254" type="motorcycle" depart="25508" from="-617654357#1" to="-1232571604" /><trip id="motorcycle_1000000255" type="motorcycle" depart="25511" from="4922743#4" to="29251749#0" /><trip id="car_1000000260" type="car" depart="25532" from="4922743#4" to="29251749#0" /><trip id="motorcycle_1000000261" type="motorcycle" depart="25532" from="4922743#4" to="617654357#1" /><trip id="car_1000000262" type="car" depart="25534" from="-617654357#1" to="-1232571604" /><trip id="car_1000000264" type="car" depart="25554" from="237386421" to="617654357#1" /><trip id="bus_1000000265" type="bus" depart="25561" from="4922743#4" to="29251749#0" /><trip id="motorcycle_1000000266" type="motorcycle" depart="25569" from="-29251749#0" to="-4922743#4" /><trip id="motorcycle_1000000267" type="motorcycle" depart="25589" from="237386421" to="-4922743#4" /><trip id="car_1000000268" type="car" depart="25593" from="-617654357#1" to="29251749#0" /><trip id="car_1000000269" type="car" depart="25595" from="-617654357#1" to="-1232571604" /><trip id="car_1000000270" type="car" depart="25596" from="-617654357#1" to="-4922743#4" /><trip id="bus_1000000271" type="bus" depart="25603" from="-29251749#0" to="617654357#1" /><trip id="motorcycle_1000000272" type="motorcycle" depart="25638" from="-617654357#1" to="-4922743#4" /><trip id="car_1000000273" type="car" depart="25647" from="4922743#4" to="29251749#0" /><trip id="car_1000000275" type="car" depart="25664" from="-617654357#1" to="-1232571604" /><trip id="car_1000000276" type="car" depart="25665" from="4922743#4" to="-1232571604" /><trip id="motorcycle_1000000277" type="motorcycle" depart="25680" from="4922743#4" to="29251749#0" /><trip id="bus_1000000279" type="bus" depart="25729" from="4922743#4" to="29251749#0" /><trip id="motorcycle_1000000280" type="motorcycle" depart="25729" from="4922743#4" to="617654357#1" /><trip id="car_1000000281" type="car" depart="25730" from="237386421" to="617654357#1" /><trip id="car_1000000282" type="car" depart="25730" from="4922743#4" to="29251749#0" /><trip id="car_1000000283" type="car" depart="25740" from="4922743#4" to="29251749#0" /><trip id="motorcycle_1000000284" type="motorcycle" depart="25752" from="-617654357#1" to="29251749#0" /><trip id="car_1000000285" type="car" depart="25762" from="-617654357#1" to="-1232571604" /><trip id="motorcycle_1000000289" type="motorcycle" depart="25804" from="-29251749#0" to="617654357#1" /><trip id="car_1000000290" type="car" depart="25815" from="-617654357#1" to="-4922743#4" /><trip id="bus_1000000291" type="bus" depart="25820" from="-617654357#1" to="29251749#0" /><trip id="car_1000000292" type="car" depart="25823" from="-29251749#0" to="-4922743#4" /><trip id="car_1000000293" type="car" depart="25833" from="4922743#4" to="29251749#0" /><trip id="motorcycle_1000000294" type="motorcycle" depart="25838" from="4922743#4" to="29251749#0" /><trip id="motorcycle_1000000296" type="motorcycle" depart="25880" from="4922743#4" to="617654357#1" /><trip id="car_1000000297" type="car" depart="25903" from="237386421" to="-4922743#4" /><trip id="motorcycle_1000000298" type="motorcycle" depart="25907" from="-617654357#1" to="29251749#0" /><trip id="motorcycle_1000000299" type="motorcycle" depart="25920" from="-29251749#0" to="-4922743#4" /><trip id="car_1000000300" type="car" depart="25925" from="4922743#4" to="29251749#0" /><trip id="motorcycle_1000000301" type="motorcycle" depart="25934" from="4922743#4" to="-1232571604" /><trip id="motorcycle_1000000302" type="motorcycle" depart="25943" from="237386421" to="617654357#1" /><trip id="motorcycle_1000000303" type="motorcycle" depart="25958" from="237386421" to="-4922743#4" /><trip id="car_1000000304" type="car" depart="25978" from="-29251749#0" to="-1232571604" /><trip id="car_1000000305" type="car" depart="25989" from="237386421" to="617654357#1" /><trip id="car_1000000306" type="car" depart="25995" from="-617654357#1" to="-1232571604" /><trip id="car_1000000308" type="car" depart="26003" from="-617654357#1" to="29251749#0" /><trip id="car_1000000309" type="car" depart="26003" from="4922743#4" to="617654357#1" /><trip id="car_1000000310" type="car" depart="26016" from="4922743#4" to="29251749#0" /><trip id="car_1000000312" type="car" depart="26027" from="-617654357#1" to="-1232571604" /><trip id="motorcycle_1000000313" type="motorcycle" depart="26027" from="237386421" to="-4922743#4" /><trip id="car_1000000316" type="car" depart="26036" from="-617654357#1" to="29251749#0" /><trip id="bus_1000000317" type="bus" depart="26041" from="4922743#4" to="29251749#0" /><trip id="motorcycle_1000000318" type="motorcycle" depart="26067" from="4922743#4" to="29251749#0" /><trip id="motorcycle_1000000322" type="motorcycle" depart="26082" from="4922743#4" to="617654357#1" /><trip id="bus_1000000323" type="bus" depart="26092" from="-617654357#1" to="29251749#0" /><trip id="bus_1000000324" type="bus" depart="26146" from="4922743#4" to="29251749#0" /><trip id="motorcycle_1000000325" type="motorcycle" depart="26152" from="4922743#4" to="29251749#0" /><trip id="motorcycle_1000000327" type="motorcycle" depart="26159" from="-29251749#0" to="-4922743#4" /><trip id="car_1000000328" type="car" depart="26165" from="4922743#4" to="617654357#1" /><trip id="bus_1000000329" type="bus" depart="26168" from="-617654357#1" to="29251749#0" /><trip id="motorcycle_1000000330" type="motorcycle" depart="26169" from="-29251749#0" to="617654357#1" /><trip id="truck_1000000331" type="truck" depart="26175" from="-29251749#0" to="-1232571604" /><trip id="car_1000000333" type="car" depart="26181" from="4922743#4" to="29251749#0" /><trip id="motorcycle_1000000334" type="motorcycle" depart="26202" from="237386421" to="-4922743#4" /><trip id="truck_1000000335" type="truck" depart="26225" from="-29251749#0" to="-1232571604" /><trip id="car_1000000336" type="car" depart="26231" from="4922743#4" to="617654357#1" /><trip id="car_1000000337" type="car" depart="26239" from="4922743#4" to="29251749#0" /><trip id="motorcycle_1000000338" type="motorcycle" depart="26243" from="-617654357#1" to="-4922743#4" /><trip id="car_1000000339" type="car" depart="26253" from="-617654357#1" to="29251749#0" /><trip id="car_1000000340" type="car" depart="26254" from="4922743#4" to="-1232571604" /><trip id="car_1000000342" type="car" depart="26260" from="-617654357#1" to="-4922743#4" /><trip id="motorcycle_1000000344" type="motorcycle" depart="26272" from="-29251749#0" to="-4922743#4" /><trip id="motorcycle_1000000346" type="motorcycle" depart="26280" from="-29251749#0" to="-4922743#4" /><trip id="car_1000000347" type="car" depart="26284" from="4922743#4" to="29251749#0" /><trip id="motorcycle_1000000349" type="motorcycle" depart="26306" from="237386421" to="-4922743#4" /><trip id="motorcycle_1000000350" type="motorcycle" depart="26324" from="-617654357#1" to="29251749#0" /><trip id="car_1000000351" type="car" depart="26325" from="-617654357#1" to="-4922743#4" /><trip id="bus_1000000352" type="bus" depart="26354" from="-617654357#1" to="29251749#0" /><trip id="car_1000000354" type="car" depart="26359" from="237386421" to="-4922743#4" /><trip id="car_1000000356" type="car" depart="26370" from="-617654357#1" to="-4922743#4" /><trip id="car_1000000357" type="car" depart="26374" from="-617654357#1" to="-1232571604" /><trip id="car_1000000358" type="car" depart="26378" from="4922743#4" to="29251749#0" /><trip id="motorcycle_1000000359" type="motorcycle" depart="26384" from="-617654357#1" to="29251749#0" /><trip id="motorcycle_1000000360" type="motorcycle" depart="26385" from="4922743#4" to="-1232571604" /><trip id="motorcycle_1000000361" type="motorcycle" depart="26386" from="4922743#4" to="29251749#0" /><trip id="motorcycle_1000000362" type="motorcycle" depart="26391" from="237386421" to="617654357#1" /><trip id="car_1000000365" type="car" depart="26442" from="237386421" to="-4922743#4" /><trip id="motorcycle_1000000366" type="motorcycle" depart="26452" from="-617654357#1" to="-4922743#4" /><trip id="car_1000000367" type="car" depart="26463" from="237386421" to="617654357#1" /><trip id="motorcycle_1000000369" type="motorcycle" depart="26475" from="237386421" to="-4922743#4" /><trip id="car_1000000370" type="car" depart="26476" from="-617654357#1" to="29251749#0" /><trip id="car_1000000371" type="car" depart="26481" from="-617654357#1" to="-1232571604" /><trip id="car_1000000372" type="car" depart="26482" from="237386421" to="-4922743#4" /><trip id="car_1000000373" type="car" depart="26485" from="-617654357#1" to="-4922743#4" /><trip id="motorcycle_1000000374" type="motorcycle" depart="26508" from="4922743#4" to="29251749#0" /><trip id="car_1000000375" type="car" depart="26520" from="4922743#4" to="-1232571604" /><trip id="car_1000000376" type="car" depart="26525" from="237386421" to="29251749#0" /><trip id="bus_1000000377" type="bus" depart="26528" from="-617654357#1" to="29251749#0" /><trip id="car_1000000379" type="car" depart="26543" from="4922743#4" to="29251749#0" /><trip id="motorcycle_1000000382" type="motorcycle" depart="26559" from="-617654357#1" to="29251749#0" /><trip id="car_1000000383" type="car" depart="26587" from="237386421" to="617654357#1" /><trip id="car_1000000384" type="car" depart="26606" from="-617654357#1" to="-1232571604" /><trip id="motorcycle_1000000386" type="motorcycle" depart="26613" from="-617654357#1" to="-1232571604" /><trip id="car_1000000387" type="car" depart="26626" from="-617654357#1" to="-4922743#4" /><trip id="motorcycle_1000000388" type="motorcycle" depart="26628" from="4922743#4" to="29251749#0" /><trip id="car_1000000389" type="car" depart="26632" from="4922743#4" to="-1232571604" /><trip id="car_1000000390" type="car" depart="26638" from="4922743#4" to="29251749#0" /><trip id="car_1000000391" type="car" depart="26643" from="-617654357#1" to="-4922743#4" /><trip id="motorcycle_1000000392" type="motorcycle" depart="26645" from="4922743#4" to="617654357#1" /><trip id="car_1000000393" type="car" depart="26650" from="4922743#4" to="-1232571604" /><trip id="car_1000000394" type="car" depart="26654" from="4922743#4" to="29251749#0" /><trip id="car_1000000395" type="car" depart="26656" from="237386421" to="-4922743#4" /><trip id="car_1000000396" type="car" depart="26672" from="237386421" to="617654357#1" /><trip id="car_1000000397" type="car" depart="26675" from="-617654357#1" to="29251749#0" /><trip id="bus_1000000398" type="bus" depart="26679" from="-617654357#1" to="29251749#0" /><trip id="motorcycle_1000000399" type="motorcycle" depart="26694" from="-617654357#1" to="-4922743#4" /><trip id="motorcycle_1000000402" type="motorcycle" depart="26700" from="4922743#4" to="-1232571604" /><trip id="motorcycle_1000000404" type="motorcycle" depart="26713" from="-29251749#0" to="-4922743#4" /><trip id="motorcycle_1000000406" type="motorcycle" depart="26716" from="-617654357#1" to="-1232571604" /><trip id="bus_1000000407" type="bus" depart="26726" from="4922743#4" to="29251749#0" /><trip id="motorcycle_1000000408" type="motorcycle" depart="26727" from="4922743#4" to="29251749#0" /><trip id="motorcycle_1000000409" type="motorcycle" depart="26732" from="-29251749#0" to="-4922743#4" /><trip id="bus_1000000410" type="bus" depart="26750" from="4922743#4" to="29251749#0" /><trip id="car_1000000411" type="car" depart="26755" from="-617654357#1" to="-4922743#4" /><trip id="car_1000000412" type="car" depart="26776" from="4922743#4" to="29251749#0" /><trip id="motorcycle_1000000414" type="motorcycle" depart="26782" from="-617654357#1" to="-1232571604" /><trip id="motorcycle_1000000415" type="motorcycle" depart="26792" from="4922743#4" to="-1232571604" /><trip id="car_1000000416" type="car" depart="26797" from="-617654357#1" to="-1232571604" /><trip id="motorcycle_1000000417" type="motorcycle" depart="26799" from="4922743#4" to="29251749#0" /><trip id="car_1000000418" type="car" depart="26801" from="-617654357#1" to="29251749#0" /><trip id="motorcycle_1000000419" type="motorcycle" depart="26827" from="-617654357#1" to="-1232571604" /><trip id="car_1000000420" type="car" depart="26838" from="4922743#4" to="29251749#0" /><trip id="motorcycle_1000000421" type="motorcycle" depart="26844" from="-617654357#1" to="29251749#0" /><trip id="motorcycle_1000000422" type="motorcycle" depart="26868" from="237386421" to="29251749#0" /><trip id="car_1000000423" type="car" depart="26869" from="4922743#4" to="-1232571604" /><trip id="bus_1000000425" type="bus" depart="26877" from="-617654357#1" to="-1232571604" /><trip id="motorcycle_1000000426" type="motorcycle" depart="26878" from="4922743#4" to="29251749#0" /><trip id="bus_1000000427" type="bus" depart="26881" from="-617654357#1" to="29251749#0" /><trip id="bus_1000000429" type="bus" depart="26909" from="4922743#4" to="29251749#0" /><trip id="motorcycle_1000000430" type="motorcycle" depart="26918" from="237386421" to="617654357#1" /><trip id="motorcycle_1000000431" type="motorcycle" depart="26919" from="-29251749#0" to="-1232571604" /><trip id="car_1000000432" type="car" depart="26927" from="237386421" to="617654357#1" /><trip id="car_1000000433" type="car" depart="26932" from="4922743#4" to="29251749#0" /><trip id="truck_1000000434" type="truck" depart="26932" from="4922743#4" to="617654357#1" /><trip id="truck_1000000436" type="truck" depart="26935" from="-29251749#0" to="-1232571604" /><trip id="bus_1000000437" type="bus" depart="26950" from="-617654357#1" to="29251749#0" /><trip id="car_1000000438" type="car" depart="26952" from="4922743#4" to="617654357#1" /