<?xml version='1.0' encoding='utf-8'?>
<trips><trip id="motorcycle_0" type="motorcycle" depart="23701" from="-29251749#0" to="-4922743#4" /><trip id="car_1" type="car" depart="23704" from="237386421" to="29251749#0" /><trip id="car_2" type="car" depart="23709" from="-29251749#0" to="-1232571604" /><trip id="motorcycle_3" type="motorcycle" depart="23717" from="4922743#4" to="617654357#1" /><trip id="motorcycle_4" type="motorcycle" depart="23723" from="4922743#4" to="617654357#1" /><trip id="motorcycle_5" type="motorcycle" depart="23743" from="4922743#4" to="29251749#0" /><trip id="car_6" type="car" depart="23755" from="4922743#4" to="617654357#1" /><trip id="car_7" type="car" depart="23771" from="-29251749#0" to="-1232571604" /><trip id="car_8" type="car" depart="23774" from="4922743#4" to="29251749#0" /><trip id="car_9" type="car" depart="23776" from="-29251749#0" to="-4922743#4" /><trip id="car_10" type="car" depart="23780" from="-29251749#0" to="617654357#1" /><trip id="car_11" type="car" depart="23806" from="237386421" to="29251749#0" /><trip id="motorcycle_12" type="motorcycle" depart="23806" from="237386421" to="-4922743#4" /><trip id="motorcycle_13" type="motorcycle" depart="23808" from="237386421" to="29251749#0" /><trip id="motorcycle_14" type="motorcycle" depart="23824" from="237386421" to="29251749#0" /><trip id="motorcycle_15" type="motorcycle" depart="23840" from="-29251749#0" to="-1232571604" /><trip id="bus_16" type="bus" depart="23843" from="4922743#4" to="617654357#1" /><trip id="motorcycle_17" type="motorcycle" depart="23843" from="-29251749#0" to="-1232571604" /><trip id="car_18" type="car" depart="23844" from="-29251749#0" to="-1232571604" /><trip id="car_19" type="car" depart="23850" from="-29251749#0" to="-1232571604" /><trip id="bus_20" type="bus" depart="23864" from="-29251749#0" to="617654357#1" /><trip id="motorcycle_21" type="motorcycle" depart="23882" from="4922743#4" to="617654357#1" /><trip id="motorcycle_22" type="motorcycle" depart="23892" from="-617654357#1" to="-4922743#4" /><trip id="bus_23" type="bus" depart="23925" from="4922743#4" to="617654357#1" /><trip id="car_24" type="car" depart="23933" from="4922743#4" to="617654357#1" /><trip id="car_25" type="car" depart="23934" from="237386421" to="617654357#1" /><trip id="motorcycle_26" type="motorcycle" depart="23934" from="-29251749#0" to="-1232571604" /><trip id="car_27" type="car" depart="23936" from="237386421" to="-4922743#4" /><trip id="motorcycle_28" type="motorcycle" depart="23936" from="4922743#4" to="617654357#1" /><trip id="motorcycle_29" type="motorcycle" depart="23942" from="4922743#4" to="617654357#1" /><trip id="truck_30" type="truck" depart="23958" from="4922743#4" to="-1232571604" /><trip id="car_31" type="car" depart="23964" from="-29251749#0" to="-4922743#4" /><trip id="bus_32" type="bus" depart="23968" from="-29251749#0" to="617654357#1" /><trip id="motorcycle_33" type="motorcycle" depart="23975" from="4922743#4" to="617654357#1" /><trip id="motorcycle_34" type="motorcycle" depart="23981" from="-29251749#0" to="-1232571604" /><trip id="motorcycle_35" type="motorcycle" depart="23981" from="-617654357#1" to="-4922743#4" /><trip id="car_36" type="car" depart="23985" from="237386421" to="29251749#0" /><trip id="truck_37" type="truck" depart="23986" from="4922743#4" to="617654357#1" /><trip id="motorcycle_38" type="motorcycle" depart="23987" from="237386421" to="29251749#0" /><trip id="car_39" type="car" depart="23993" from="4922743#4" to="29251749#0" /><trip id="car_40" type="car" depart="24031" from="-29251749#0" to="-4922743#4" /><trip id="car_41" type="car" depart="24038" from="4922743#4" to="29251749#0" /><trip id="car_42" type="car" depart="24055" from="4922743#4" to="29251749#0" /><trip id="car_43" type="car" depart="24077" from="4922743#4" to="29251749#0" /><trip id="car_44" type="car" depart="24077" from="4922743#4" to="617654357#1" /><trip id="car_45" type="car" depart="24080" from="4922743#4" to="617654357#1" /><trip id="motorcycle_46" type="motorcycle" depart="24082" from="-29251749#0" to="-1232571604" /><trip id="car_47" type="car" depart="24085" from="4922743#4" to="29251749#0" /><trip id="car_48" type="car" depart="24093" from="4922743#4" to="617654357#1" /><trip id="motorcycle_49" type="motorcycle" depart="24095" from="4922743#4" to="617654357#1" /><trip id="car_50" type="car" depart="24096" from="4922743#4" to="617654357#1" /><trip id="motorcycle_51" type="motorcycle" depart="24096" from="4922743#4" to="617654357#1" /><trip id="car_52" type="car" depart="24102" from="4922743#4" to="617654357#1" /><trip id="motorcycle_53" type="motorcycle" depart="24102" from="-29251749#0" to="617654357#1" /><trip id="car_54" type="car" depart="24110" from="4922743#4" to="617654357#1" /><trip id="bus_55" type="bus" depart="24111" from="4922743#4" to="617654357#1" /><trip id="car_56" type="car" depart="24113" from="-29251749#0" to="617654357#1" /><trip id="car_57" type="car" depart="24114" from="4922743#4" to="29251749#0" /><trip id="car_58" type="car" depart="24125" from="4922743#4" to="29251749#0" /><trip id="motorcycle_59" type="motorcycle" depart="24139" from="237386421" to="29251749#0" /><trip id="car_60" type="car" depart="24142" from="4922743#4" to="617654357#1" /><trip id="motorcycle_61" type="motorcycle" depart="24142" from="-617654357#1" to="-4922743#4" /><trip id="car_62" type="car" depart="24150" from="-29251749#0" to="-4922743#4" /><trip id="motorcycle_63" type="motorcycle" depart="24151" from="4922743#4" to="617654357#1" /><trip id="motorcycle_64" type="motorcycle" depart="24162" from="4922743#4" to="617654357#1" /><trip id="motorcycle_65" type="motorcycle" depart="24170" from="237386421" to="-4922743#4" /><trip id="bus_66" type="bus" depart="24176" from="4922743#4" to="617654357#1" /><trip id="motorcycle_67" type="motorcycle" depart="24202" from="-29251749#0" to="-1232571604" /><trip id="motorcycle_68" type="motorcycle" depart="24203" from="-29251749#0" to="-1232571604" /><trip id="car_69" type="car" depart="24210" from="4922743#4" to="617654357#1" /><trip id="motorcycle_70" type="motorcycle" depart="24210" from="4922743#4" to="617654357#1" /><trip id="car_71" type="car" depart="24228" from="4922743#4" to="29251749#0" /><trip id="car_72" type="car" depart="24249" from="4922743#4" to="617654357#1" /><trip id="car_73" type="car" depart="24258" from="4922743#4" to="617654357#1" /><trip id="motorcycle_74" type="motorcycle" depart="24271" from="-29251749#0" to="-4922743#4" /><trip id="motorcycle_75" type="motorcycle" depart="24274" from="4922743#4" to="-1232571604" /><trip id="car_76" type="car" depart="24276" from="-617654357#1" to="-4922743#4" /><trip id="bus_77" type="bus" depart="24277" from="-29251749#0" to="617654357#1" /><trip id="car_78" type="car" depart="24277" from="-29251749#0" to="-4922743#4" /><trip id="car_79" type="car" depart="24282" from="4922743#4" to="617654357#1" /><trip id="motorcycle_80" type="motorcycle" depart="24287" from="4922743#4" to="617654357#1" /><trip id="motorcycle_81" type="motorcycle" depart="24292" from="-29251749#0" to="-1232571604" /><trip id="car_82" type="car" depart="24301" from="4922743#4" to="29251749#0" /><trip id="car_83" type="car" depart="24301" from="4922743#4" to="617654357#1" /><trip id="car_84" type="car" depart="24302" from="4922743#4" to="617654357#1" /><trip id="bus_85" type="bus" depart="24315" from="237386421" to="-4922743#4" /><trip id="car_86" type="car" depart="24320" from="-29251749#0" to="-4922743#4" /><trip id="car_87" type="car" depart="24323" from="-29251749#0" to="-4922743#4" /><trip id="car_88" type="car" depart="24328" from="4922743#4" to="29251749#0" /><trip id="car_89" type="car" depart="24337" from="-29251749#0" to="-4922743#4" /><trip id="car_90" type="car" depart="24348" from="4922743#4" to="617654357#1" /><trip id="motorcycle_91" type="motorcycle" depart="24356" from="237386421" to="617654357#1" /><trip id="motorcycle_92" type="motorcycle" depart="24357" from="237386421" to="617654357#1" /><trip id="bus_93" type="bus" depart="24378" from="-29251749#0" to="-4922743#4" /><trip id="car_94" type="car" depart="24392" from="4922743#4" to="617654357#1" /><trip id="car_95" type="car" depart="24399" from="237386421" to="-4922743#4" /><trip id="car_96" type="car" depart="24411" from="-29251749#0" to="617654357#1" /><trip id="car_97" type="car" depart="24422" from="4922743#4" to="617654357#1" /><trip id="motorcycle_98" type="motorcycle" depart="24424" from="4922743#4" to="617654357#1" /><trip id="car_99" type="car" depart="24427" from="4922743#4" to="617654357#1" /><trip id="car_100" type="car" depart="24430" from="-29251749#0" to="-4922743#4" /><trip id="car_101" type="car" depart="24434" from="4922743#4" to="29251749#0" /><trip id="motorcycle_102" type="motorcycle" depart="24452" from="-617654357#1" to="29251749#0" /><trip id="bus_103" type="bus" depart="24462" from="4922743#4" to="617654357#1" /><trip id="car_104" type="car" depart="24466" from="4922743#4" to="617654357#1" /><trip id="motorcycle_105" type="motorcycle" depart="24468" from="237386421" to="617654357#1" /><trip id="car_106" type="car" depart="24472" from="-29251749#0" to="-1232571604" /><trip id="car_107" type="car" depart="24478" from="4922743#4" to="617654357#1" /><trip id="car_108" type="car" depart="24510" from="237386421" to="29251749#0" /><trip id="motorcycle_109" type="motorcycle" depart="24514" from="4922743#4" to="29251749#0" /><trip id="car_110" type="car" depart="24521" from="-29251749#0" to="-4922743#4" /><trip id="car_111" type="car" depart="24532" from="4922743#4" to="617654357#1" /><trip id="bus_112" type="bus" depart="24534" from="-29251749#0" to="617654357#1" /><trip id="motorcycle_113" type="motorcycle" depart="24535" from="237386421" to="-4922743#4" /><trip id="motorcycle_114" type="motorcycle" depart="24549" from="237386421" to="-4922743#4" /><trip id="bus_115" type="bus" depart="24553" from="-29251749#0" to="617654357#1" /><trip id="motorcycle_116" type="motorcycle" depart="24556" from="4922743#4" to="-1232571604" /><trip id="motorcycle_117" type="motorcycle" depart="24558" from="-617654357#1" to="-4922743#4" /><trip id="car_118" type="car" depart="24565" from="-29251749#0" to="-1232571604" /><trip id="motorcycle_119" type="motorcycle" depart="24565" from="4922743#4" to="29251749#0" /><trip id="motorcycle_120" type="motorcycle" depart="24570" from="-29251749#0" to="617654357#1" /><trip id="motorcycle_121" type="motorcycle" depart="24579" from="4922743#4" to="-1232571604" /><trip id="bus_122" type="bus" depart="24583" from="4922743#4" to="617654357#1" /><trip id="motorcycle_123" type="motorcycle" depart="24587" from="237386421" to="-4922743#4" /><trip id="bus_124" type="bus" depart="24591" from="-29251749#0" to="617654357#1" /><trip id="motorcycle_125" type="motorcycle" depart="24598" from="-29251749#0" to="617654357#1" /><trip id="car_126" type="car" depart="24602" from="4922743#4" to="617654357#1" /><trip id="motorcycle_127" type="motorcycle" depart="24603" from="4922743#4" to="29251749#0" /><trip id="car_128" type="car" depart="24613" from="4922743#4" to="617654357#1" /><trip id="motorcycle_129" type="motorcycle" depart="24617" from="4922743#4" to="617654357#1" /><trip id="bus_130" type="bus" depart="24622" from="-29251749#0" to="617654357#1" /><trip id="motorcycle_131" type="motorcycle" depart="24634" from="-29251749#0" to="-4922743#4" /><trip id="bus_132" type="bus" depart="24636" from="4922743#4" to="-1232571604" /><trip id="car_133" type="car" depart="24642" from="4922743#4" to="617654357#1" /><trip id="motorcycle_134" type="motorcycle" depart="24671" from="237386421" to="617654357#1" /><trip id="motorcycle_135" type="motorcycle" depart="24686" from="4922743#4" to="29251749#0" /><trip id="motorcycle_136" type="motorcycle" depart="24699" from="4922743#4" to="617654357#1" /><trip id="motorcycle_137" type="motorcycle" depart="24709" from="-29251749#0" to="617654357#1" /><trip id="car_138" type="car" depart="24721" from="4922743#4" to="29251749#0" /><trip id="car_139" type="car" depart="24730" from="4922743#4" to="29251749#0" /><trip id="car_140" type="car" depart="24735" from="-29251749#0" to="-4922743#4" /><trip id="car_141" type="car" depart="24743" from="4922743#4" to="617654357#1" /><trip id="motorcycle_142" type="motorcycle" depart="24754" from="4922743#4" to="617654357#1" /><trip id="car_143" type="car" depart="24760" from="4922743#4" to="617654357#1" /><trip id="motorcycle_144" type="motorcycle" depart="24762" from="4922743#4" to="617654357#1" /><trip id="motorcycle_145" type="motorcycle" depart="24770" from="-29251749#0" to="-1232571604" /><trip id="car_146" type="car" depart="24776" from="4922743#4" to="-1232571604" /><trip id="car_147" type="car" depart="24776" from="4922743#4" to="617654357#1" /><trip id="motorcycle_148" type="motorcycle" depart="24776" from="4922743#4" to="29251749#0" /><trip id="bus_149" type="bus" depart="24779" from="4922743#4" to="617654357#1" /><trip id="motorcycle_150" type="motorcycle" depart="24805" from="-617654357#1" to="-4922743#4" /><trip id="car_151" type="car" depart="24813" from="4922743#4" to="29251749#0" /><trip id="motorcycle_152" type="motorcycle" depart="24817" from="4922743#4" to="29251749#0" /><trip id="motorcycle_153" type="motorcycle" depart="24819" from="4922743#4" to="617654357#1" /><trip id="car_154" type="car" depart="24824" from="4922743#4" to="29251749#0" /><trip id="motorcycle_155" type="motorcycle" depart="24832" from="4922743#4" to="617654357#1" /><trip id="motorcycle_156" type="motorcycle" depart="24832" from="4922743#4" to="617654357#1" /><trip id="car_157" type="car" depart="24842" from="-29251749#0" to="-1232571604" /><trip id="motorcycle_158" type="motorcycle" depart="24847" from="-29251749#0" to="-4922743#4" /><trip id="motorcycle_159" type="motorcycle" depart="24871" from="-29251749#0" to="617654357#1" /><trip id="motorcycle_160" type="motorcycle" depart="24872" from="-29251749#0" to="-1232571604" /><trip id="car_161" type="car" depart="24882" from="4922743#4" to="617654357#1" /><trip id="motorcycle_162" type="motorcycle" depart="24900" from="-29251749#0" to="-4922743#4" /><trip id="motorcycle_163" type="motorcycle" depart="24904" from="-29251749#0" to="-1232571604" /><trip id="motorcycle_164" type="motorcycle" depart="24912" from="-29251749#0" to="617654357#1" /><trip id="truck_165" type="truck" depart="24918" from="237386421" to="-4922743#4" /><trip id="motorcycle_166" type="motorcycle" depart="24919" from="4922743#4" to="617654357#1" /><trip id="car_167" type="car" depart="24920" from="4922743#4" to="617654357#1" /><trip id="motorcycle_168" type="motorcycle" depart="24921" from="237386421" to="29251749#0" /><trip id="motorcycle_169" type="motorcycle" depart="24932" from="4922743#4" to="29251749#0" /><trip id="motorcycle_170" type="motorcycle" depart="24934" from="-29251749#0" to="617654357#1" /><trip id="car_171" type="car" depart="24946" from="4922743#4" to="617654357#1" /><trip id="bus_172" type="bus" depart="24952" from="4922743#4" to="617654357#1" /><trip id="car_173" type="car" depart="24962" from="-29251749#0" to="-1232571604" /><trip id="car_174" type="car" depart="24969" from="237386421" to="29251749#0" /><trip id="motorcycle_175" type="motorcycle" depart="24974" from="4922743#4" to="617654357#1" /><trip id="car_176" type="car" depart="24975" from="4922743#4" to="617654357#1" /><trip id="car_177" type="car" depart="24976" from="4922743#4" to="617654357#1" /><trip id="car_178" type="car" depart="24976" from="4922743#4" to="617654357#1" /><trip id="motorcycle_179" type="motorcycle" depart="24979" from="4922743#4" to="617654357#1" /><trip id="car_180" type="car" depart="24980" from="-29251749#0" to="-1232571604" /><trip id="motorcycle_181" type="motorcycle" depart="24997" from="4922743#4" to="617654357#1" /><trip id="car_182" type="car" depart="25000" from="4922743#4" to="617654357#1" /><trip id="car_183" type="car" depart="25005" from="4922743#4" to="29251749#0" /><trip id="motorcycle_184" type="motorcycle" depart="25006" from="-617654357#1" to="-4922743#4" /><trip id="motorcycle_185" type="motorcycle" depart="25015" from="-29251749#0" to="-1232571604" /><trip id="car_186" type="car" depart="25021" from="4922743#4" to="29251749#0" /><trip id="motorcycle_187" type="motorcycle" depart="25038" from="-29251749#0" to="617654357#1" /><trip id="motorcycle_188" type="motorcycle" depart="25050" from="-29251749#0" to="617654357#1" /><trip id="car_189" type="car" depart="25051" from="4922743#4" to="-1232571604" /><trip id="car_190" type="car" depart="25053" from="-29251749#0" to="-1232571604" /><trip id="car_191" type="car" depart="25057" from="4922743#4" to="617654357#1" /><trip id="car_192" type="car" depart="25064" from="4922743#4" to="617654357#1" /><trip id="motorcycle_193" type="motorcycle" depart="25070" from="237386421" to="29251749#0" /><trip id="motorcycle_194" type="motorcycle" depart="25077" from="4922743#4" to="-1232571604" /><trip id="motorcycle_195" type="motorcycle" depart="25094" from="4922743#4" to="617654357#1" /><trip id="car_196" type="car" depart="25097" from="237386421" to="29251749#0" /><trip id="motorcycle_197" type="motorcycle" depart="25099" from="4922743#4" to="617654357#1" /><trip id="car_198" type="car" depart="25102" from="-29251749#0" to="-1232571604" /><trip id="motorcycle_199" type="motorcycle" depart="25106" from="-29251749#0" to="617654357#1" /><trip id="motorcycle_200" type="motorcycle" depart="25106" from="4922743#4" to="29251749#0" /><trip id="motorcycle_201" type="motorcycle" depart="25114" from="-29251749#0" to="-1232571604" /><trip id="car_202" type="car" depart="25117" from="237386421" to="617654357#1" /><trip id="motorcycle_203" type="motorcycle" depart="25121" from="4922743#4" to="-1232571604" /><trip id="bus_204" type="bus" depart="25128" from="-29251749#0" to="617654357#1" /><trip id="motorcycle_205" type="motorcycle" depart="25137" from="-617654357#1" to="29251749#0" /><trip id="car_206" type="car" depart="25151" from="4922743#4" to="617654357#1" /><trip id="motorcycle_207" type="motorcycle" depart="25158" from="4922743#4" to="617654357#1" /><trip id="motorcycle_208" type="motorcycle" depart="25167" from="-29251749#0" to="-4922743#4" /><trip id="car_209" type="car" depart="25182" from="237386421" to="29251749#0" /><trip id="car_210" type="car" depart="25197" from="-29251749#0" to="-4922743#4" /><trip id="bus_211" type="bus" depart="25198" from="-29251749#0" to="617654357#1" /><trip id="motorcycle_212" type="motorcycle" depart="25199" from="4922743#4" to="-1232571604" /><trip id="car_213" type="car" depart="25200" from="-29251749#0" to="617654357#1" /><trip id="car_214" type="car" depart="25213" from="4922743#4" to="29251749#0" /><trip id="car_215" type="car" depart="25218" from="-29251749#0" to="617654357#1" /><trip id="motorcycle_216" type="motorcycle" depart="25218" from="237386421" to="29251749#0" /><trip id="car_217" type="car" depart="25221" from="-29251749#0" to="617654357#1" /><trip id="motorcycle_218" type="motorcycle" depart="25225" from="4922743#4" to="617654357#1" /><trip id="car_219" type="car" depart="25226" from="237386421" to="617654357#1" /><trip id="motorcycle_220" type="motorcycle" depart="25233" from="-29251749#0" to="617654357#1" /><trip id="motorcycle_221" type="motorcycle" depart="25233" from="4922743#4" to="617654357#1" /><trip id="car_222" type="car" depart="25236" from="4922743#4" to="-1232571604" /><trip id="motorcycle_223" type="motorcycle" depart="25247" from="4922743#4" to="617654357#1" /><trip id="car_224" type="car" depart="25265" from="-29251749#0" to="617654357#1" /><trip id="motorcycle_225" type="motorcycle" depart="25269" from="237386421" to="-4922743#4" /><trip id="car_226" type="car" depart="25272" from="-29251749#0" to="-1232571604" /><trip id="motorcycle_227" type="motorcycle" depart="25272" from="237386421" to="-4922743#4" /><trip id="car_228" type="car" depart="25284" from="-29251749#0" to="-1232571604" /><trip id="car_229" type="car" depart="25294" from="-29251749#0" to="-4922743#4" /><trip id="car_230" type="car" depart="25296" from="-29251749#0" to="-1232571604" /><trip id="motorcycle_231" type="motorcycle" depart="25300" from="-29251749#0" to="617654357#1" /><trip id="car_232" type="car" depart="25307" from="-29251749#0" to="617654357#1" /><trip id="motorcycle_233" type="motorcycle" depart="25318" from="-29251749#0" to="617654357#1" /><trip id="motorcycle_234" type="motorcycle" depart="25322" from="-617654357#1" to="-1232571604" /><trip id="motorcycle_235" type="motorcycle" depart="25346" from="4922743#4" to="617654357#1" /><trip id="motorcycle_236" type="motorcycle" depart="25352" from="4922743#4" to="617654357#1" /><trip id="car_237" type="car" depart="25366" from="237386421" to="617654357#1" /><trip id="car_238" type="car" depart="25373" from="4922743#4" to="-1232571604" /><trip id="car_239" type="car" depart="25377" from="4922743#4" to="617654357#1" /><trip id="car_240" type="car" depart="25385" from="237386421" to="617654357#1" /><trip id="bus_241" type="bus" depart="25389" from="4922743#4" to="617654357#1" /><trip id="car_242" type="car" depart="25396" from="237386421" to="-4922743#4" /><trip id="car_243" type="car" depart="25398" from="237386421" to="29251749#0" /><trip id="motorcycle_244" type="motorcycle" depart="25409" from="237386421" to="29251749#0" /><trip id="motorcycle_245" type="motorcycle" depart="25417" from="237386421" to="29251749#0" /><trip id="bus_246" type="bus" depart="25421" from="-29251749#0" to="617654357#1" /><trip id="motorcycle_247" type="motorcycle" depart="25429" from="4922743#4" to="617654357#1" /><trip id="motorcycle_248" type="motorcycle" depart="25431" from="237386421" to="-4922743#4" /><trip id="motorcycle_249" type="motorcycle" depart="25441" from="4922743#4" to="617654357#1" /><trip id="motorcycle_250" type="motorcycle" depart="25449" from="4922743#4" to="-1232571604" /><trip id="car_251" type="car" depart="25458" from="4922743#4" to="-1232571604" /><trip id="bus_252" type="bus" depart="25465" from="-29251749#0" to="617654357#1" /><trip id="car_253" type="car" depart="25494" from="4922743#4" to="29251749#0" /><trip id="motorcycle_254" type="motorcycle" depart="25510" from="4922743#4" to="617654357#1" /><trip id="motorcycle_255" type="motorcycle" depart="25511" from="-29251749#0" to="-1232571604" /><trip id="car_256" type="car" depart="25519" from="4922743#4" to="29251749#0" /><trip id="car_257" type="car" depart="25519" from="4922743#4" to="617654357#1" /><trip id="motorcycle_258" type="motorcycle" depart="25522" from="4922743#4" to="29251749#0" /><trip id="car_259" type="car" depart="25530" from="-29251749#0" to="-1232571604" /><trip id="motorcycle_260" type="motorcycle" depart="25535" from="4922743#4" to="617654357#1" /><trip id="car_261" type="car" depart="25540" from="4922743#4" to="617654357#1" /><trip id="motorcycle_262" type="motorcycle" depart="25542" from="4922743#4" to="617654357#1" /><trip id="motorcycle_263" type="motorcycle" depart="25543" from="4922743#4" to="617654357#1" /><trip id="car_264" type="car" depart="25551" from="237386421" to="29251749#0" /><trip id="car_265" type="car" depart="25560" from="-29251749#0" to="-4922743#4" /><trip id="bus_266" type="bus" depart="25566" from="4922743#4" to="617654357#1" /><trip id="bus_267" type="bus" depart="25568" from="-617654357#1" to="29251749#0" /><trip id="motorcycle_268" type="motorcycle" depart="25576" from="237386421" to="-4922743#4" /><trip id="car_269" type="car" depart="25592" from="-29251749#0" to="-1232571604" /><trip id="car_270" type="car" depart="25602" from="-29251749#0" to="617654357#1" /><trip id="motorcycle_271" type="motorcycle" depart="25611" from="-617654357#1" to="-4922743#4" /><trip id="motorcycle_272" type="motorcycle" depart="25621" from="-29251749#0" to="-4922743#4" /><trip id="car_273" type="car" depart="25641" from="-29251749#0" to="-1232571604" /><trip id="car_274" type="car" depart="25641" from="4922743#4" to="-1232571604" /><trip id="car_275" type="car" depart="25642" from="-29251749#0" to="-1232571604" /><trip id="car_276" type="car" depart="25679" from="4922743#4" to="617654357#1" /><trip id="motorcycle_277" type="motorcycle" depart="25688" from="4922743#4" to="617654357#1" /><trip id="bus_278" type="bus" depart="25707" from="4922743#4" to="617654357#1" /><trip id="motorcycle_279" type="motorcycle" depart="25708" from="4922743#4" to="617654357#1" /><trip id="car_280" type="car" depart="25719" from="237386421" to="29251749#0" /><trip id="motorcycle_281" type="motorcycle" depart="25720" from="4922743#4" to="29251749#0" /><trip id="car_282" type="car" depart="25722" from="4922743#4" to="617654357#1" /><trip id="car_283" type="car" depart="25745" from="4922743#4" to="617654357#1" /><trip id="car_284" type="car" depart="25745" from="4922743#4" to="617654357#1" /><trip id="car_285" type="car" depart="25750" from="-29251749#0" to="-1232571604" /><trip id="motorcycle_286" type="motorcycle" depart="25771" from="-29251749#0" to="617654357#1" /><trip id="car_287" type="car" depart="25775" from="4922743#4" to="617654357#1" /><trip id="motorcycle_288" type="motorcycle" depart="25789" from="-29251749#0" to="617654357#1" /><trip id="motorcycle_289" type="motorcycle" depart="25800" from="-617654357#1" to="29251749#0" /><trip id="car_290" type="car" depart="25833" from="4922743#4" to="617654357#1" /><trip id="car_291" type="car" depart="25837" from="4922743#4" to="617654357#1" /><trip id="car_292" type="car" depart="25841" from="-29251749#0" to="-4922743#4" /><trip id="car_293" type="car" depart="25847" from="-617654357#1" to="-4922743#4" /><trip id="bus_294" type="bus" depart="25856" from="-29251749#0" to="617654357#1" /><trip id="motorcycle_295" type="motorcycle" depart="25858" from="4922743#4" to="617654357#1" /><trip id="car_296" type="car" depart="25861" from="237386421" to="-4922743#4" /><trip id="motorcycle_297" type="motorcycle" depart="25880" from="-29251749#0" to="617654357#1" /><trip id="motorcycle_298" type="motorcycle" depart="25908" from="4922743#4" to="29251749#0" /><trip id="car_299" type="car" depart="25933" from="-617654357#1" to="-1232571604" /><trip id="motorcycle_300" type="motorcycle" depart="25939" from="4922743#4" to="-1232571604" /><trip id="motorcycle_301" type="motorcycle" depart="25941" from="237386421" to="29251749#0" /><trip id="motorcycle_302" type="motorcycle" depart="25955" from="-617654357#1" to="-4922743#4" /><trip id="car_303" type="car" depart="25977" from="4922743#4" to="617654357#1" /><trip id="motorcycle_304" type="motorcycle" depart="25978" from="237386421" to="-4922743#4" /><trip id="car_305" type="car" depart="25982" from="-29251749#0" to="-1232571604" /><trip id="car_306" type="car" depart="25982" from="4922743#4" to="617654357#1" /><trip id="car_307" type="car" depart="25987" from="4922743#4" to="29251749#0" /><trip id="car_308" type="car" depart="25992" from="-29251749#0" to="617654357#1" /><trip id="car_309" type="car" depart="25992" from="237386421" to="29251749#0" /><trip id="car_310" type="car" depart="25995" from="4922743#4" to="617654357#1" /><trip id="car_311" type="car" depart="26005" from="-29251749#0" to="-1232571604" /><trip id="car_312" type="car" depart="26006" from="-29251749#0" to="-1232571604" /><trip id="car_313" type="car" depart="26014" from="-29251749#0" to="617654357#1" /><trip id="car_314" type="car" depart="26026" from="4922743#4" to="617654357#1" /><trip id="car_315" type="car" depart="26030" from="4922743#4" to="617654357#1" /><trip id="motorcycle_316" type="motorcycle" depart="26039" from="237386421" to="-4922743#4" /><trip id="motorcycle_317" type="motorcycle" depart="26055" from="4922743#4" to="617654357#1" /><trip id="bus_318" type="bus" depart="26061" from="-29251749#0" to="617654357#1" /><trip id="car_319" type="car" depart="26061" from="-29251749#0" to="617654357#1" /><trip id="bus_320" type="bus" depart="26090" from="4922743#4" to="617654357#1" /><trip id="motorcycle_321" type="motorcycle" depart="26094" from="4922743#4" to="617654357#1" /><trip id="bus_322" type="bus" depart="26096" from="4922743#4" to="617654357#1" /><trip id="motorcycle_323" type="motorcycle" depart="26096" from="4922743#4" to="29251749#0" /><trip id="motorcycle_324" type="motorcycle" depart="26113" from="-617654357#1" to="-4922743#4" /><trip id="motorcycle_325" type="motorcycle" depart="26149" from="4922743#4" to="617654357#1" /><trip id="bus_326" type="bus" depart="26151" from="4922743#4" to="617654357#1" /><trip id="motorcycle_327" type="motorcycle" depart="26154" from="4922743#4" to="617654357#1" /><trip id="car_328" type="car" depart="26161" from="4922743#4" to="29251749#0" /><trip id="truck_329" type="truck" depart="26165" from="-617654357#1" to="-1232571604" /><trip id="motorcycle_330" type="motorcycle" depart="26180" from="237386421" to="-4922743#4" /><trip id="motorcycle_331" type="motorcycle" depart="26188" from="-617654357#1" to="29251749#0" /><trip id="car_332" type="car" depart="26190" from="4922743#4" to="617654357#1" /><trip id="bus_333" type="bus" depart="26198" from="-29251749#0" to="617654357#1" /><trip id="car_334" type="car" depart="26216" from="4922743#4" to="29251749#0" /><trip id="car_335" type="car" depart="26221" from="4922743#4" to="617654357#1" /><trip id="car_336" type="car" depart="26229" from="-29251749#0" to="-4922743#4" /><trip id="car_337" type="car" depart="26236" from="4922743#4" to="617654357#1" /><trip id="car_338" type="car" depart="26246" from="4922743#4" to="29251749#0" /><trip id="car_339" type="car" depart="26248" from="4922743#4" to="-1232571604" /><trip id="motorcycle_340" type="motorcycle" depart="26264" from="-29251749#0" to="-4922743#4" /><trip id="car_341" type="car" depart="26266" from="4922743#4" to="29251749#0" /><trip id="car_342" type="car" depart="26269" from="-29251749#0" to="617654357#1" /><trip id="truck_343" type="truck" depart="26269" from="-617654357#1" to="-1232571604" /><trip id="moto